                                                                
version 3
run JoinManeuver-0-20240820-16:22:58-5656
attr configname JoinManeuver
attr datetime 20240820-16:22:58
attr datetimef 20240820-162258
attr experiment JoinManeuver
attr inifile omnetpp.ini
attr iterationvars "$nCars=4, $platoonSize=4, $nLanes=1, $caccXi=1, $caccOmegaN=0.2, $ploegH=0.5, $leaderHeadway=1.2, $leaderSpeed=100, $beaconInterval=0.1, $priority=2, $packetSize=200"
attr iterationvarsd nCars=4/platoonSize=4/nLanes=1/caccXi=1/caccOmegaN=0.2/ploegH=0.5/leaderHeadway=1.2/leaderSpeed=100/beaconInterval=0.1/priority=2/packetSize=200
attr iterationvarsf nCars=4,platoonSize=4,nLanes=1,caccXi=1,caccOmegaN=0.2,ploegH=0.5,leaderHeadway=1.2,leaderSpeed=100,beaconInterval=0.1,priority=2,packetSize=200-
attr measurement "$nCars=4, $platoonSize=4, $nLanes=1, $caccXi=1, $caccOmegaN=0.2, $ploegH=0.5, $leaderHeadway=1.2, $leaderSpeed=100, $beaconInterval=0.1, $priority=2, $packetSize=200"
attr network JoinManeuver
attr processid 5656
attr repetition 0
attr replication #0
attr resultdir results
attr runnumber 0
attr seedset 0
itervar beaconInterval 0.1
itervar caccOmegaN 0.2
itervar caccXi 1
itervar leaderHeadway 1.2
itervar leaderSpeed 100
itervar nCars 4
itervar nLanes 1
itervar packetSize 200
itervar platoonSize 4
itervar ploegH 0.5
itervar priority 2
config image-path ../../../veins/images
config repeat 1
config *.manager.command "\"sumo-gui\""
config *.manager.ignoreGuiCommands false
config *.node[*].scenario_type "\"JoinManeuverScenario\""
config output-vector-file results/JoinManeuver_1_0.2_0.vec
config output-scalar-file results/JoinManeuver_1_0.2_0.sca
config cmdenv-express-mode true
config cmdenv-autoflush true
config cmdenv-status-frequency 10s
config num-rngs 6
config network JoinManeuver
config debug-on-errors true
config print-undisposed true
config *.playgroundSizeX 65000m
config *.playgroundSizeY 25000m
config *.playgroundSizeZ 50m
config sim-time-limit "120 s"
config *.annotations.draw false
config *.obstacles.debug false
config *.world.useTorus false
config *.world.use2D false
config *.manager.updateInterval 0.01s
config *.manager.host "\"localhost\""
config *.manager.moduleType "\"org.car2x.plexe.PlatoonCar\""
config *.manager.moduleName "\"node\""
config *.manager.moduleDisplayString "\"\""
config *.manager.autoShutdown true
config *.manager.margin 25
config *.connectionManager.sendDirect true
config *.connectionManager.maxInterfDist 2600m
config *.connectionManager.drawMaxIntfDist false
config *.**.nic.mac1609_4.useServiceChannel false
config *.**.nic.mac1609_4.txPower 100mW
config *.**.nic.mac1609_4.bitrate 6Mbps
config *.**.nic.mac1609_4.useAcks true
config *.**.nic.mac1609_4.ackErrorRate 0.0
config *.**.nic.mac1609_4.frameErrorRate 0.0
config *.**.nic.phy80211p.minPowerLevel -94dBm
config *.**.nic.phy80211p.maxTXPower 100mW
config *.**.nic.phy80211p.useNoiseFloor true
config *.**.nic.phy80211p.noiseFloor -95dBm
config *.**.nic.phy80211p.decider "xmldoc(\"config.xml\")"
config *.**.nic.phy80211p.analogueModels "xmldoc(\"config.xml\")"
config *.**.nic.phy80211p.usePropagationDelay true
config *.node[*].mobility.x 0
config *.node[*].mobility.y 0
config *.node[*].mobility.z 1.895
config seed-set 0
config **.seed 0
config *.node[*].prot.rng-0 2
config *.node[*].appl.rng-0 3
config *.node[*].scenario.rng-0 4
config **.traffic.rng-0 5
config *.manager.configFile "\"./sumocfg/freeway.sumo.cfg\""
config *.manager.launchConfig "xmldoc(\"./sumocfg/freeway.launchd.xml\")"
config **.numberOfCars 4
config **.numberOfCarsPerPlatoon 4
config **.numberOfLanes 1
config **.controllerXi 1
config **.controllerOmegaN 0.2
config *.node[*].helper_type "\"PositionHelper\""
config *.node[*].scenario.caccC1 0.5
config *.node[*].scenario.caccXi 1
config *.node[*].scenario.caccOmegaN "0.2 Hz"
config *.node[*].scenario.caccSpacing "5 m"
config *.node[*].scenario.engineTau "0.5 s"
config *.node[*].scenario.ploegH 0.5s
config *.node[*].scenario.ploegKp 0.2
config *.node[*].scenario.ploegKd 0.7
config *.node[*].scenario.useRealisticEngine false
config *.node[*].scenario.targetController "\"CACC\""
config **.numericController 0
config *.node[*].scenario.accHeadway "0.1 s"
config *.node[*].scenario.leaderHeadway 1.2s
config *.node[*].scenario.leaderSpeed 100kmph
config *.node[*].appl_type "\"GeneralPlatooningApp\""
config *.node[*].appl.*.scalar-recording true
config *.node[*].appl.*.vector-recording true
config *.node[*].appl.joinManeuver "\"JoinAtBack\""
config *.node[*].appl.mergeManeuver "\"MergeAtBack\""
config *.node[*].protocol_type "\"SimplePlatooningBeaconing\""
config *.node[*].prot.*.scalar-recording true
config *.node[*].prot.*.vector-recording true
config *.node[*].prot.beaconingInterval 0.1s
config *.node[*].prot.priority 2
config *.node[*].prot.packetSize 200
config **.traffic_type "\"JoinTrafficManager\""
config **.traffic.platoonInsertTime "1 s"
config **.traffic.platoonInsertSpeed 100kmph
config **.traffic.nCars 4
config **.traffic.platoonSize 4
config **.traffic.nLanes 1
config **.traffic.platooningVType "\"vtypeauto\""
config **.traffic.controller "\"CACC\""
config **.traffic.platoonInsertDistance "5 m"
config **.traffic.platoonInsertHeadway "0 s"
config **.traffic.platoonLeaderHeadway 1.2s
config **.scalar-recording false
config **.vector-recording false

vector 0 JoinManeuver.node[0].appl distance ETV
vector 1 JoinManeuver.node[0].appl relativeSpeed ETV
vector 2 JoinManeuver.node[0].appl nodeId ETV
vector 3 JoinManeuver.node[0].appl acceleration ETV
vector 4 JoinManeuver.node[0].appl controllerAcceleration ETV
vector 5 JoinManeuver.node[0].appl speed ETV
vector 6 JoinManeuver.node[0].appl posx ETV
vector 7 JoinManeuver.node[0].appl posy ETV
vector 8 JoinManeuver.node[1].appl distance ETV
vector 9 JoinManeuver.node[1].appl relativeSpeed ETV
vector 10 JoinManeuver.node[1].appl nodeId ETV
vector 11 JoinManeuver.node[1].appl acceleration ETV
vector 12 JoinManeuver.node[1].appl controllerAcceleration ETV
vector 13 JoinManeuver.node[1].appl speed ETV
vector 14 JoinManeuver.node[1].appl posx ETV
vector 15 JoinManeuver.node[1].appl posy ETV
vector 16 JoinManeuver.node[2].appl distance ETV
vector 17 JoinManeuver.node[2].appl relativeSpeed ETV
vector 18 JoinManeuver.node[2].appl nodeId ETV
vector 19 JoinManeuver.node[2].appl acceleration ETV
vector 20 JoinManeuver.node[2].appl controllerAcceleration ETV
vector 21 JoinManeuver.node[2].appl speed ETV
vector 22 JoinManeuver.node[2].appl posx ETV
vector 23 JoinManeuver.node[2].appl posy ETV
vector 24 JoinManeuver.node[3].appl distance ETV
vector 25 JoinManeuver.node[3].appl relativeSpeed ETV
vector 26 JoinManeuver.node[3].appl nodeId ETV
vector 27 JoinManeuver.node[3].appl acceleration ETV
vector 28 JoinManeuver.node[3].appl controllerAcceleration ETV
vector 29 JoinManeuver.node[3].appl speed ETV
vector 30 JoinManeuver.node[3].appl posx ETV
vector 31 JoinManeuver.node[3].appl posy ETV
vector 32 JoinManeuver.node[3].prot frontDelay ETV
vector 33 JoinManeuver.node[3].prot frontDelayId ETV
vector 34 JoinManeuver.node[2].prot frontDelay ETV
vector 35 JoinManeuver.node[2].prot frontDelayId ETV
vector 36 JoinManeuver.node[1].prot leaderDelay ETV
vector 37 JoinManeuver.node[1].prot leaderDelayId ETV
vector 38 JoinManeuver.node[1].prot frontDelay ETV
vector 39 JoinManeuver.node[1].prot frontDelayId ETV
vector 40 JoinManeuver.node[2].prot leaderDelay ETV
vector 41 JoinManeuver.node[2].prot leaderDelayId ETV
vector 42 JoinManeuver.node[3].prot leaderDelay ETV
vector 43 JoinManeuver.node[3].prot leaderDelayId ETV
vector 44 JoinManeuver.node[0].prot nodeId ETV
vector 45 JoinManeuver.node[0].prot busyTime ETV
vector 46 JoinManeuver.node[0].prot collisions ETV
vector 47 JoinManeuver.node[1].prot nodeId ETV
vector 48 JoinManeuver.node[1].prot busyTime ETV
vector 49 JoinManeuver.node[1].prot collisions ETV
vector 50 JoinManeuver.node[2].prot nodeId ETV
vector 51 JoinManeuver.node[2].prot busyTime ETV
vector 52 JoinManeuver.node[2].prot collisions ETV
vector 53 JoinManeuver.node[3].prot nodeId ETV
vector 54 JoinManeuver.node[3].prot busyTime ETV
vector 55 JoinManeuver.node[3].prot collisions ETV
vector 56 JoinManeuver.node[4].appl distance ETV
