version 3
run MergeManeuverNoGui-1-20240816-19:46:59-11132
attr configname MergeManeuverNoGui
attr datetime 20240816-19:46:59
attr datetimef 20240816-194659
attr experiment MergeManeuverNoGui
attr inifile omnetpp.ini
attr iterationvars "$nCars=4, $platoonSize=4, $nLanes=1, $caccXi=2, $caccOmegaN=1, $ploegH=0.5, $leaderHeadway=1.2, $leaderSpeed=100, $beaconInterval=0.1, $priority=2, $packetSize=200"
attr iterationvarsd nCars=4/platoonSize=4/nLanes=1/caccXi=2/caccOmegaN=1/ploegH=0.5/leaderHeadway=1.2/leaderSpeed=100/beaconInterval=0.1/priority=2/packetSize=200
attr iterationvarsf nCars=4,platoonSize=4,nLanes=1,caccXi=2,caccOmegaN=1,ploegH=0.5,leaderHeadway=1.2,leaderSpeed=100,beaconInterval=0.1,priority=2,packetSize=200-
attr measurement "$nCars=4, $platoonSize=4, $nLanes=1, $caccXi=2, $caccOmegaN=1, $ploegH=0.5, $leaderHeadway=1.2, $leaderSpeed=100, $beaconInterval=0.1, $priority=2, $packetSize=200"
attr network JoinManeuver
attr processid 11132
attr repetition 0
attr replication #0
attr resultdir results
attr runnumber 1
attr seedset 0
itervar beaconInterval 0.1
itervar caccOmegaN 1
itervar caccXi 2
itervar leaderHeadway 1.2
itervar leaderSpeed 100
itervar nCars 4
itervar nLanes 1
itervar packetSize 200
itervar platoonSize 4
itervar ploegH 0.5
itervar priority 2
config image-path ../../../veins/images
config extends MergeManeuver
config *.manager.command "\"sumo\""
config *.manager.ignoreGuiCommands true
config output-vector-file results/MergeManeuver_2_1_0.vec
config output-scalar-file results/MergeManeuver_2_1_0.sca
config repeat 1
config **.traffic_type "\"PlatoonsTrafficManager\""
config **.traffic.nCars 8
config **.traffic.platoonSize 4
config **.traffic.nLanes 1
config **.traffic.platoonAdditionalDistance 300m
config *.node[*].scenario_type "\"MergeManeuverScenario\""
config *.manager.command "\"sumo-gui\""
config *.manager.ignoreGuiCommands false
config output-vector-file results/MergeManeuverNoGui_2_1_0.vec
config output-scalar-file results/MergeManeuverNoGui_2_1_0.sca
config cmdenv-express-mode true
config cmdenv-autoflush true
config cmdenv-status-frequency 10s
config num-rngs 6
config network JoinManeuver
config debug-on-errors true
config print-undisposed true
config *.playgroundSizeX 65000m
config *.playgroundSizeY 25000m
config *.playgroundSizeZ 50m
config sim-time-limit "120 s"
config *.annotations.draw false
config *.obstacles.debug false
config *.world.useTorus false
config *.world.use2D false
config *.manager.updateInterval 0.01s
config *.manager.host "\"localhost\""
config *.manager.moduleType "\"org.car2x.plexe.PlatoonCar\""
config *.manager.moduleName "\"node\""
config *.manager.moduleDisplayString "\"\""
config *.manager.autoShutdown true
config *.manager.margin 25
config *.connectionManager.sendDirect true
config *.connectionManager.maxInterfDist 2600m
config *.connectionManager.drawMaxIntfDist false
config *.**.nic.mac1609_4.useServiceChannel false
config *.**.nic.mac1609_4.txPower 100mW
config *.**.nic.mac1609_4.bitrate 6Mbps
config *.**.nic.mac1609_4.useAcks true
config *.**.nic.mac1609_4.ackErrorRate 0.0
config *.**.nic.mac1609_4.frameErrorRate 0.0
config *.**.nic.phy80211p.minPowerLevel -94dBm
config *.**.nic.phy80211p.maxTXPower 100mW
config *.**.nic.phy80211p.useNoiseFloor true
config *.**.nic.phy80211p.noiseFloor -95dBm
config *.**.nic.phy80211p.decider "xmldoc(\"config.xml\")"
config *.**.nic.phy80211p.analogueModels "xmldoc(\"config.xml\")"
config *.**.nic.phy80211p.usePropagationDelay true
config *.node[*].mobility.x 0
config *.node[*].mobility.y 0
config *.node[*].mobility.z 1.895
config seed-set 0
config **.seed 0
config *.node[*].prot.rng-0 2
config *.node[*].appl.rng-0 3
config *.node[*].scenario.rng-0 4
config **.traffic.rng-0 5
config *.manager.configFile "\"./sumocfg/freeway.sumo.cfg\""
config *.manager.launchConfig "xmldoc(\"./sumocfg/freeway.launchd.xml\")"
config **.numberOfCars 4
config **.numberOfCarsPerPlatoon 4
config **.numberOfLanes 1
config **.controllerXi 2
config **.controllerOmegaN 1
config *.node[*].helper_type "\"PositionHelper\""
config *.node[*].scenario.caccC1 0.5
config *.node[*].scenario.caccXi 2
config *.node[*].scenario.caccOmegaN "1 Hz"
config *.node[*].scenario.caccSpacing "5 m"
config *.node[*].scenario.engineTau "0.5 s"
config *.node[*].scenario.ploegH 0.5s
config *.node[*].scenario.ploegKp 0.2
config *.node[*].scenario.ploegKd 0.7
config *.node[*].scenario.useRealisticEngine false
config *.node[*].scenario.targetController "\"CACC\""
config **.numericController 0
config *.node[*].scenario.accHeadway "0.1 s"
config *.node[*].scenario.leaderHeadway 1.2s
config *.node[*].scenario.leaderSpeed 100kmph
config *.node[*].appl_type "\"GeneralPlatooningApp\""
config *.node[*].appl.*.scalar-recording true
config *.node[*].appl.*.vector-recording true
config *.node[*].appl.joinManeuver "\"JoinAtBack\""
config *.node[*].appl.mergeManeuver "\"MergeAtBack\""
config *.node[*].protocol_type "\"SimplePlatooningBeaconing\""
config *.node[*].prot.*.scalar-recording true
config *.node[*].prot.*.vector-recording true
config *.node[*].prot.beaconingInterval 0.1s
config *.node[*].prot.priority 2
config *.node[*].prot.packetSize 200
config **.traffic_type "\"JoinTrafficManager\""
config **.traffic.platoonInsertTime "1 s"
config **.traffic.platoonInsertSpeed 100kmph
config **.traffic.nCars 4
config **.traffic.platoonSize 4
config **.traffic.nLanes 1
config **.traffic.platooningVType "\"vtypeauto\""
config **.traffic.controller "\"CACC\""
config **.traffic.platoonInsertDistance "5 m"
config **.traffic.platoonInsertHeadway "0 s"
config **.traffic.platoonLeaderHeadway 1.2s
config **.scalar-recording false
config **.vector-recording false

vector 0 JoinManeuver.node[0].appl distance ETV
vector 1 JoinManeuver.node[0].appl relativeSpeed ETV
vector 2 JoinManeuver.node[0].appl nodeId ETV
vector 3 JoinManeuver.node[0].appl acceleration ETV
vector 4 JoinManeuver.node[0].appl controllerAcceleration ETV
vector 5 JoinManeuver.node[0].appl speed ETV
vector 6 JoinManeuver.node[0].appl posx ETV
vector 7 JoinManeuver.node[0].appl posy ETV
vector 8 JoinManeuver.node[1].appl distance ETV
vector 9 JoinManeuver.node[1].appl relativeSpeed ETV
vector 10 JoinManeuver.node[1].appl nodeId ETV
vector 11 JoinManeuver.node[1].appl acceleration ETV
vector 12 JoinManeuver.node[1].appl controllerAcceleration ETV
vector 13 JoinManeuver.node[1].appl speed ETV
vector 14 JoinManeuver.node[1].appl posx ETV
vector 15 JoinManeuver.node[1].appl posy ETV
vector 16 JoinManeuver.node[2].appl distance ETV
vector 17 JoinManeuver.node[2].appl relativeSpeed ETV
vector 18 JoinManeuver.node[2].appl nodeId ETV
vector 19 JoinManeuver.node[2].appl acceleration ETV
vector 20 JoinManeuver.node[2].appl controllerAcceleration ETV
vector 21 JoinManeuver.node[2].appl speed ETV
vector 22 JoinManeuver.node[2].appl posx ETV
vector 23 JoinManeuver.node[2].appl posy ETV
vector 24 JoinManeuver.node[3].appl distance ETV
vector 25 JoinManeuver.node[3].appl relativeSpeed ETV
vector 26 JoinManeuver.node[3].appl nodeId ETV
vector 27 JoinManeuver.node[3].appl acceleration ETV
vector 28 JoinManeuver.node[3].appl controllerAcceleration ETV
vector 29 JoinManeuver.node[3].appl speed ETV
vector 30 JoinManeuver.node[3].appl posx ETV
vector 31 JoinManeuver.node[3].appl posy ETV
vector 32 JoinManeuver.node[4].appl distance ETV
vector 33 JoinManeuver.node[4].appl relativeSpeed ETV
vector 34 JoinManeuver.node[4].appl nodeId ETV
vector 35 JoinManeuver.node[4].appl acceleration ETV
vector 36 JoinManeuver.node[4].appl controllerAcceleration ETV
vector 37 JoinManeuver.node[4].appl speed ETV
vector 38 JoinManeuver.node[4].appl posx ETV
vector 39 JoinManeuver.node[4].appl posy ETV
vector 40 JoinManeuver.node[5].appl distance ETV
vector 41 JoinManeuver.node[5].appl relativeSpeed ETV
vector 42 JoinManeuver.node[5].appl nodeId ETV
vector 43 JoinManeuver.node[5].appl acceleration ETV
vector 44 JoinManeuver.node[5].appl controllerAcceleration ETV
vector 45 JoinManeuver.node[5].appl speed ETV
vector 46 JoinManeuver.node[5].appl posx ETV
vector 47 JoinManeuver.node[5].appl posy ETV
vector 48 JoinManeuver.node[6].appl distance ETV
vector 49 JoinManeuver.node[6].appl relativeSpeed ETV
vector 50 JoinManeuver.node[6].appl nodeId ETV
vector 51 JoinManeuver.node[6].appl acceleration ETV
vector 52 JoinManeuver.node[6].appl controllerAcceleration ETV
vector 53 JoinManeuver.node[6].appl speed ETV
vector 54 JoinManeuver.node[6].appl posx ETV
vector 55 JoinManeuver.node[6].appl posy ETV
vector 56 JoinManeuver.node[7].appl distance ETV
vector 57 JoinManeuver.node[7].appl relativeSpeed ETV
vector 58 JoinManeuver.node[7].appl nodeId ETV
vector 59 JoinManeuver.node[7].appl acceleration ETV
vector 60 JoinManeuver.node[7].appl controllerAcceleration ETV
vector 61 JoinManeuver.node[7].appl speed ETV
vector 62 JoinManeuver.node[7].appl posx ETV
vector 63 JoinManeuver.node[7].appl posy ETV
vector 64 JoinManeuver.node[3].prot frontDelay ETV
vector 65 JoinManeuver.node[3].prot frontDelayId ETV
vector 66 JoinManeuver.node[2].prot frontDelay ETV
vector 67 JoinManeuver.node[2].prot frontDelayId ETV
vector 68 JoinManeuver.node[7].prot frontDelay ETV
vector 69 JoinManeuver.node[7].prot frontDelayId ETV
vector 70 JoinManeuver.node[1].prot leaderDelay ETV
vector 71 JoinManeuver.node[1].prot leaderDelayId ETV
vector 72 JoinManeuver.node[1].prot frontDelay ETV
vector 73 JoinManeuver.node[1].prot frontDelayId ETV
vector 74 JoinManeuver.node[2].prot leaderDelay ETV
vector 75 JoinManeuver.node[2].prot leaderDelayId ETV
vector 76 JoinManeuver.node[3].prot leaderDelay ETV
vector 77 JoinManeuver.node[3].prot leaderDelayId ETV
vector 78 JoinManeuver.node[5].prot leaderDelay ETV
vector 79 JoinManeuver.node[5].prot leaderDelayId ETV
vector 80 JoinManeuver.node[5].prot frontDelay ETV
vector 81 JoinManeuver.node[5].prot frontDelayId ETV
vector 82 JoinManeuver.node[6].prot leaderDelay ETV
vector 83 JoinManeuver.node[6].prot leaderDelayId ETV
vector 84 JoinManeuver.node[7].prot leaderDelay ETV
vector 85 JoinManeuver.node[7].prot leaderDelayId ETV
vector 86 JoinManeuver.node[6].prot frontDelay ETV
vector 87 JoinManeuver.node[6].prot frontDelayId ETV
vector 88 JoinManeuver.node[0].prot nodeId ETV
vector 89 JoinManeuver.node[0].prot busyTime ETV
vector 90 JoinManeuver.node[0].prot collisions ETV
vector 91 JoinManeuver.node[1].prot nodeId ETV
vector 92 JoinManeuver.node[1].prot busyTime ETV
vector 93 JoinManeuver.node[1].prot collisions ETV
vector 94 JoinManeuver.node[2].prot nodeId ETV
vector 95 JoinManeuver.node[2].prot busyTime ETV
vector 96 JoinManeuver.node[2].prot collisions ETV
vector 97 JoinManeuver.node[3].prot nodeId ETV
vector 98 JoinManeuver.node[3].prot busyTime ETV
vector 99 JoinManeuver.node[3].prot collisions ETV
vector 100 JoinManeuver.node[4].prot nodeId ETV
vector 101 JoinManeuver.node[4].prot busyTime ETV
vector 102 JoinManeuver.node[4].prot collisions ETV
vector 103 JoinManeuver.node[5].prot nodeId ETV
vector 104 JoinManeuver.node[5].prot busyTime ETV
vector 105 JoinManeuver.node[5].prot collisions ETV
vector 106 JoinManeuver.node[6].prot nodeId ETV
vector 107 JoinManeuver.node[6].prot busyTime ETV
vector 108 JoinManeuver.node[6].prot collisions ETV
vector 109 JoinManeuver.node[7].prot nodeId ETV
vector 110 JoinManeuver.node[7].prot busyTime ETV
vector 111 JoinManeuver.node[7].prot collisions ETV
vector 112 JoinManeuver.node[4].prot leaderDelay ETV
vector 113 JoinManeuver.node[4].prot leaderDelayId ETV
vector 114 JoinManeuver.node[4].prot frontDelay ETV
vector 115 JoinManeuver.node[4].prot frontDelayId ETV
0	113	1.11	-1
0	659	1.21	-1
0	1205	1.31	-1
0	1751	1.41	-1
0	2297	1.51	-1
0	2843	1.61	-1
0	3389	1.71	-1
0	3935	1.81	-1
0	4481	1.91	-1
0	5035	2.01	-1
0	5581	2.11	-1
0	6127	2.21	-1
0	6673	2.31	-1
0	7219	2.41	-1
0	7765	2.51	-1
0	8311	2.61	-1
0	8857	2.71	-1
0	9403	2.81	-1
0	9949	2.91	-1
0	10503	3.01	-1
0	11049	3.11	-1
0	11595	3.21	-1
0	12141	3.31	-1
0	12687	3.41	-1
0	13233	3.51	-1
0	13779	3.61	-1
0	14325	3.71	-1
0	14871	3.81	-1
0	15417	3.91	-1
0	15971	4.01	-1
0	16517	4.11	-1
0	17063	4.21	-1
0	17609	4.31	-1
0	18155	4.41	-1
0	18701	4.51	-1
0	19247	4.61	-1
0	19793	4.71	-1
0	20339	4.81	-1
0	20885	4.91	-1
0	21439	5.01	-1
0	21985	5.11	-1
0	22531	5.21	-1
0	23077	5.31	-1
0	23623	5.41	-1
0	24169	5.51	-1
0	24715	5.61	-1
0	25261	5.71	-1
0	25807	5.81	-1
0	26353	5.91	-1
0	26907	6.01	-1
0	27453	6.11	-1
0	27999	6.21	-1
0	28545	6.31	-1
0	29091	6.41	-1
0	29637	6.51	-1
0	30183	6.61	-1
0	30729	6.71	-1
0	31275	6.81	-1
0	31821	6.91	-1
0	32375	7.01	-1
0	32921	7.11	-1
0	33467	7.21	-1
0	34013	7.31	-1
0	34559	7.41	-1
0	35105	7.51	-1
0	35651	7.61	-1
0	36197	7.71	-1
0	36743	7.81	-1
0	37289	7.91	-1
0	37843	8.01	-1
0	38389	8.11	-1
0	38935	8.21	-1
0	39481	8.31	-1
0	40027	8.41	-1
0	40573	8.51	-1
0	41119	8.61	-1
0	41665	8.71	-1
0	42211	8.81	-1
0	42757	8.91	-1
0	43311	9.01	-1
0	43857	9.11	-1
0	44403	9.21	-1
0	44949	9.31	-1
0	45495	9.41	-1
0	46041	9.51	-1
0	46587	9.61	-1
0	47133	9.71	-1
0	47679	9.81	-1
0	48225	9.91	-1
0	48779	10.01	-1
0	49325	10.11	-1
0	49871	10.21	-1
0	50417	10.31	-1
0	50963	10.41	-1
0	51509	10.51	-1
0	52055	10.61	-1
0	52601	10.71	-1
0	53147	10.81	-1
0	53693	10.91	-1
0	54248	11.01	-1
0	55073	11.11	-1
0	55619	11.21	-1
0	56165	11.31	-1
0	56711	11.41	-1
0	57257	11.51	-1
0	57803	11.61	-1
0	58349	11.71	-1
0	58895	11.81	-1
0	59441	11.91	-1
0	59995	12.01	-1
0	60541	12.11	-1
0	61087	12.21	-1
0	61633	12.31	-1
0	62179	12.41	-1
0	62725	12.51	-1
0	63271	12.61	-1
0	63817	12.71	-1
0	64363	12.81	-1
0	64909	12.91	-1
0	65463	13.01	-1
0	66009	13.11	-1
0	66555	13.21	-1
0	67101	13.31	-1
0	67647	13.41	-1
0	68193	13.51	-1
0	68739	13.61	-1
0	69285	13.71	-1
0	69831	13.81	-1
0	70377	13.91	-1
0	70931	14.01	-1
0	71477	14.11	-1
0	72023	14.21	-1
0	72569	14.31	-1
0	73115	14.41	-1
0	73661	14.51	-1
0	74207	14.61	-1
0	74753	14.71	-1
0	75299	14.81	-1
0	75845	14.91	-1
0	76399	15.01	-1
0	76945	15.11	-1
0	77491	15.21	-1
0	78037	15.31	-1
0	78583	15.41	-1
0	79129	15.51	-1
0	79675	15.61	-1
0	80221	15.71	-1
0	80767	15.81	-1
0	81313	15.91	-1
0	81867	16.01	-1
0	82413	16.11	-1
0	82959	16.21	-1
0	83505	16.31	-1
0	84051	16.41	-1
0	84597	16.51	-1
0	85143	16.61	-1
0	85689	16.71	-1
0	86235	16.81	-1
0	86781	16.91	-1
0	87335	17.01	-1
0	87881	17.11	-1
0	88427	17.21	-1
0	88973	17.31	-1
0	89519	17.41	-1
0	90065	17.51	-1
0	90611	17.61	-1
0	91157	17.71	-1
0	91703	17.81	-1
0	92249	17.91	-1
0	92803	18.01	-1
0	93349	18.11	-1
0	93895	18.21	-1
0	94441	18.31	-1
0	94987	18.41	-1
0	95533	18.51	-1
0	96079	18.61	-1
0	96625	18.71	-1
0	97171	18.81	-1
0	97717	18.91	-1
0	98271	19.01	-1
0	98817	19.11	-1
0	99363	19.21	-1
0	99909	19.31	-1
0	100455	19.41	-1
0	101001	19.51	-1
0	101547	19.61	-1
0	102093	19.71	-1
0	102639	19.81	-1
0	103185	19.91	-1
0	103739	20.01	-1
0	104285	20.11	-1
0	104831	20.21	-1
0	105377	20.31	-1
0	105923	20.41	-1
0	106469	20.51	-1
0	107015	20.61	-1
0	107561	20.71	-1
0	108107	20.81	-1
0	108653	20.91	-1
0	109207	21.01	-1
0	109753	21.11	-1
0	110299	21.21	-1
0	110845	21.31	-1
0	111391	21.41	-1
0	111937	21.51	-1
0	112483	21.61	-1
0	113029	21.71	-1
0	113575	21.81	-1
0	114121	21.91	-1
0	114675	22.01	-1
0	115221	22.11	-1
0	115767	22.21	-1
0	116313	22.31	-1
0	116859	22.41	-1
0	117405	22.51	-1
0	117951	22.61	-1
0	118497	22.71	-1
0	119043	22.81	-1
0	119589	22.91	-1
0	120143	23.01	-1
0	120689	23.11	-1
0	121235	23.21	-1
0	121781	23.31	-1
0	122327	23.41	-1
0	122873	23.51	-1
0	123419	23.61	-1
0	123965	23.71	-1
0	124511	23.81	-1
0	125057	23.91	-1
0	125611	24.01	-1
0	126157	24.11	-1
0	126703	24.21	-1
0	127249	24.31	-1
0	127795	24.41	-1
0	128341	24.51	-1
0	128887	24.61	-1
0	129433	24.71	-1
0	129979	24.81	-1
0	130525	24.91	-1
0	131079	25.01	-1
0	131625	25.11	-1
0	132171	25.21	-1
0	132717	25.31	-1
0	133263	25.41	-1
0	133809	25.51	-1
0	134355	25.61	-1
0	134901	25.71	-1
0	135447	25.81	-1
0	135993	25.91	-1
0	136547	26.01	-1
0	137093	26.11	-1
0	137639	26.21	-1
0	138185	26.31	-1
0	138731	26.41	-1
0	139277	26.51	-1
0	139823	26.61	-1
0	140369	26.71	-1
0	140915	26.81	-1
0	141461	26.91	-1
0	142015	27.01	-1
0	142561	27.11	-1
0	143107	27.21	-1
0	143653	27.31	-1
0	144199	27.41	-1
0	144745	27.51	-1
0	145291	27.61	-1
0	145837	27.71	-1
0	146383	27.81	-1
0	146929	27.91	-1
0	147483	28.01	-1
0	148029	28.11	-1
0	148575	28.21	-1
0	149121	28.31	-1
0	149667	28.41	-1
0	150213	28.51	-1
0	150759	28.61	-1
0	151305	28.71	-1
0	151851	28.81	-1
0	152397	28.91	-1
0	152951	29.01	-1
0	153497	29.11	-1
0	154043	29.21	-1
0	154589	29.31	-1
0	155135	29.41	-1
0	155681	29.51	-1
0	156227	29.61	-1
0	156773	29.71	-1
0	157319	29.81	-1
0	157865	29.91	-1
0	158419	30.01	-1
0	158965	30.11	-1
0	159511	30.21	-1
0	160057	30.31	-1
0	160603	30.41	-1
0	161149	30.51	-1
0	161695	30.61	-1
0	162241	30.71	-1
0	162787	30.81	-1
0	163333	30.91	-1
0	163887	31.01	-1
0	164433	31.11	-1
0	164979	31.21	-1
0	165525	31.31	-1
0	166071	31.41	-1
0	166617	31.51	-1
0	167163	31.61	-1
0	167709	31.71	-1
0	168255	31.81	-1
0	168801	31.91	-1
0	169355	32.01	-1
0	169901	32.11	-1
0	170447	32.21	-1
0	170993	32.31	-1
0	171539	32.41	-1
0	172085	32.51	-1
0	172631	32.61	-1
0	173177	32.71	-1
0	173723	32.81	-1
0	174269	32.91	-1
0	174823	33.01	-1
0	175369	33.11	-1
0	175915	33.21	-1
0	176461	33.31	-1
0	177007	33.41	-1
0	177553	33.51	-1
0	178099	33.61	-1
0	178645	33.71	-1
0	179191	33.81	-1
0	179737	33.91	-1
0	180291	34.01	-1
0	180837	34.11	-1
0	181383	34.21	-1
0	181929	34.31	-1
0	182475	34.41	-1
0	183021	34.51	-1
0	183567	34.61	-1
0	184113	34.71	-1
0	184659	34.81	-1
0	185205	34.91	-1
0	185759	35.01	-1
0	186305	35.11	-1
0	186851	35.21	-1
0	187397	35.31	-1
0	187943	35.41	-1
0	188489	35.51	-1
0	189035	35.61	-1
0	189581	35.71	-1
0	190127	35.81	-1
0	190673	35.91	-1
0	191227	36.01	-1
0	191773	36.11	-1
0	192319	36.21	-1
0	192865	36.31	-1
0	193411	36.41	-1
0	193957	36.51	-1
0	194503	36.61	-1
0	195049	36.71	-1
0	195595	36.81	-1
0	196141	36.91	-1
0	196695	37.01	-1
0	197241	37.11	-1
0	197787	37.21	-1
0	198333	37.31	-1
0	198879	37.41	-1
0	199425	37.51	-1
0	199971	37.61	-1
0	200517	37.71	-1
0	201063	37.81	-1
0	201609	37.91	-1
0	202163	38.01	-1
0	202709	38.11	-1
0	203255	38.21	-1
0	203801	38.31	-1
0	204347	38.41	-1
0	204893	38.51	-1
0	205439	38.61	-1
0	205985	38.71	-1
0	206531	38.81	-1
0	207077	38.91	-1
0	207631	39.01	-1
0	208177	39.11	-1
0	208723	39.21	-1
0	209269	39.31	-1
0	209815	39.41	-1
0	210361	39.51	-1
0	210907	39.61	-1
0	211453	39.71	-1
0	211999	39.81	-1
0	212545	39.91	-1
0	213099	40.01	-1
0	213645	40.11	-1
0	214191	40.21	-1
0	214737	40.31	-1
0	215283	40.41	-1
0	215829	40.51	-1
0	216375	40.61	-1
0	216921	40.71	-1
0	217467	40.81	-1
0	218013	40.91	-1
0	218567	41.01	-1
0	219113	41.11	-1
0	219659	41.21	-1
0	220205	41.31	-1
0	220751	41.41	-1
0	221297	41.51	-1
0	221843	41.61	-1
0	222389	41.71	-1
0	222935	41.81	-1
0	223481	41.91	-1
0	224035	42.01	-1
0	224581	42.11	-1
0	225127	42.21	-1
0	225673	42.31	-1
0	226219	42.41	-1
0	226765	42.51	-1
0	227311	42.61	-1
0	227857	42.71	-1
0	228403	42.81	-1
0	228949	42.91	-1
0	229503	43.01	-1
0	230049	43.11	-1
0	230595	43.21	-1
0	231141	43.31	-1
0	231687	43.41	-1
0	232233	43.51	-1
0	232779	43.61	-1
0	233325	43.71	-1
0	233871	43.81	-1
0	234417	43.91	-1
0	234971	44.01	-1
0	235517	44.11	-1
0	236063	44.21	-1
0	236609	44.31	-1
0	237155	44.41	-1
0	237701	44.51	-1
0	238247	44.61	-1
0	238793	44.71	-1
0	239339	44.81	-1
0	239885	44.91	-1
0	240439	45.01	-1
0	240985	45.11	-1
0	241531	45.21	-1
0	242077	45.31	-1
0	242623	45.41	-1
0	243169	45.51	-1
0	243715	45.61	-1
0	244261	45.71	-1
0	244807	45.81	-1
0	245353	45.91	-1
0	245907	46.01	-1
0	246453	46.11	-1
0	246999	46.21	-1
0	247545	46.31	-1
0	248091	46.41	-1
0	248637	46.51	-1
0	249183	46.61	-1
0	249729	46.71	-1
0	250275	46.81	-1
0	250821	46.91	-1
0	251375	47.01	-1
0	251921	47.11	-1
0	252467	47.21	-1
0	253013	47.31	-1
0	253559	47.41	-1
0	254105	47.51	-1
0	254651	47.61	-1
0	255197	47.71	-1
0	255743	47.81	-1
0	256289	47.91	-1
0	256843	48.01	-1
0	257389	48.11	-1
0	257935	48.21	-1
0	258481	48.31	-1
0	259027	48.41	-1
0	259573	48.51	-1
0	260119	48.61	-1
0	260665	48.71	-1
0	261211	48.81	-1
0	261757	48.91	-1
0	262311	49.01	-1
0	262857	49.11	-1
0	263403	49.21	-1
0	263949	49.31	-1
0	264495	49.41	-1
0	265041	49.51	-1
0	265587	49.61	-1
0	266133	49.71	-1
0	266679	49.81	-1
0	267225	49.91	-1
0	267779	50.01	-1
0	268325	50.11	-1
0	268871	50.21	-1
0	269417	50.31	-1
0	269963	50.41	-1
0	270509	50.51	-1
0	271055	50.61	-1
0	271601	50.71	-1
0	272147	50.81	-1
0	272693	50.91	-1
0	273247	51.01	-1
0	273793	51.11	-1
0	274339	51.21	-1
0	274885	51.31	-1
0	275431	51.41	-1
0	275977	51.51	-1
0	276523	51.61	-1
0	277069	51.71	-1
0	277615	51.81	-1
0	278161	51.91	-1
0	278715	52.01	-1
0	279261	52.11	-1
0	279807	52.21	-1
0	280353	52.31	-1
0	280899	52.41	-1
0	281445	52.51	-1
0	281991	52.61	-1
0	282537	52.71	-1
0	283083	52.81	-1
0	283629	52.91	-1
0	284183	53.01	-1
0	284729	53.11	-1
0	285275	53.21	-1
0	285821	53.31	-1
0	286367	53.41	-1
0	286913	53.51	-1
0	287459	53.61	-1
0	288005	53.71	-1
0	288551	53.81	-1
0	289097	53.91	-1
0	289651	54.01	-1
0	290197	54.11	-1
0	290743	54.21	-1
0	291289	54.31	-1
0	291835	54.41	-1
0	292381	54.51	-1
0	292927	54.61	-1
0	293473	54.71	-1
0	294019	54.81	-1
0	294565	54.91	-1
0	295119	55.01	-1
0	295665	55.11	-1
0	296211	55.21	-1
0	296757	55.31	-1
0	297303	55.41	-1
0	297849	55.51	-1
0	298395	55.61	-1
0	298941	55.71	-1
0	299487	55.81	-1
0	300033	55.91	-1
0	300587	56.01	-1
0	301133	56.11	-1
0	301679	56.21	-1
0	302225	56.31	-1
0	302771	56.41	-1
0	303317	56.51	-1
0	303863	56.61	-1
0	304409	56.71	-1
0	304955	56.81	-1
0	305501	56.91	-1
0	306055	57.01	-1
0	306601	57.11	-1
0	307147	57.21	-1
0	307693	57.31	-1
0	308239	57.41	-1
0	308785	57.51	-1
0	309331	57.61	-1
0	309877	57.71	-1
0	310423	57.81	-1
0	310969	57.91	-1
0	311523	58.01	-1
0	312069	58.11	-1
0	312615	58.21	-1
0	313161	58.31	-1
0	313707	58.41	-1
0	314253	58.51	-1
0	314799	58.61	-1
0	315345	58.71	-1
0	315891	58.81	-1
0	316437	58.91	-1
0	316991	59.01	-1
0	317537	59.11	-1
0	318083	59.21	-1
0	318629	59.31	-1
0	319175	59.41	-1
0	319721	59.51	-1
0	320267	59.61	-1
0	320813	59.71	-1
0	321359	59.81	-1
0	321905	59.91	-1
0	322459	60.01	-1
0	323005	60.11	-1
0	323551	60.21	-1
0	324097	60.31	-1
0	324643	60.41	-1
0	325189	60.51	-1
0	325735	60.61	-1
0	326281	60.71	-1
0	326827	60.81	-1
0	327373	60.91	-1
0	327927	61.01	-1
0	328473	61.11	-1
0	329019	61.21	-1
0	329565	61.31	-1
0	330111	61.41	-1
0	330657	61.51	-1
0	332133	61.61	-1
0	332679	61.71	-1
0	333225	61.81	-1
0	333771	61.91	-1
0	334325	62.01	-1
0	334872	62.11	-1
0	335418	62.21	-1
0	335964	62.31	-1
0	336510	62.41	-1
0	337056	62.51	-1
0	337603	62.61	-1
0	338149	62.71	-1
0	338695	62.81	-1
0	339241	62.91	-1
0	339795	63.01	-1
0	340342	63.11	-1
0	340888	63.21	-1
0	341434	63.31	-1
0	341980	63.41	-1
0	342526	63.51	-1
0	343073	63.61	-1
0	343619	63.71	-1
0	344165	63.81	-1
0	344711	63.91	-1
0	345265	64.01	-1
0	345812	64.11	-1
0	346358	64.21	-1
0	346904	64.31	-1
0	347450	64.41	-1
0	347996	64.51	-1
0	348543	64.61	-1
0	349089	64.71	-1
0	349635	64.81	-1
0	350181	64.91	-1
0	350735	65.01	-1
0	351282	65.11	-1
0	351828	65.21	-1
0	352374	65.31	-1
0	352920	65.41	-1
0	353466	65.51	-1
0	354013	65.61	-1
0	354559	65.71	-1
0	355105	65.81	-1
0	355651	65.91	-1
0	356205	66.01	-1
0	356752	66.11	-1
0	357298	66.21	-1
0	357844	66.31	-1
0	358390	66.41	-1
0	358936	66.51	-1
0	359483	66.61	-1
0	360029	66.71	-1
0	360575	66.81	-1
0	361121	66.91	-1
0	361675	67.01	-1
0	362222	67.11	-1
0	362768	67.21	-1
0	363314	67.31	-1
0	363860	67.41	-1
0	364406	67.51	-1
0	364953	67.61	-1
0	365499	67.71	-1
0	366045	67.81	-1
0	366591	67.91	-1
0	367145	68.01	-1
0	367692	68.11	-1
0	368238	68.21	-1
0	368784	68.31	-1
0	369330	68.41	-1
0	369876	68.51	-1
0	370423	68.61	-1
0	370969	68.71	-1
0	371515	68.81	-1
0	372061	68.91	-1
0	372615	69.01	-1
0	373162	69.11	-1
0	373708	69.21	-1
0	374254	69.31	-1
0	374800	69.41	-1
0	375346	69.51	-1
0	375893	69.61	-1
0	376439	69.71	-1
0	376985	69.81	-1
0	377531	69.91	-1
0	378085	70.01	-1
0	378632	70.11	-1
0	379178	70.21	-1
0	379724	70.31	-1
0	380270	70.41	-1
0	380816	70.51	-1
0	381363	70.61	-1
0	381909	70.71	-1
0	382455	70.81	-1
0	383001	70.91	-1
0	383555	71.01	-1
0	384102	71.11	-1
0	384648	71.21	-1
0	385194	71.31	-1
0	385740	71.41	-1
0	386286	71.51	-1
0	387112	71.61	-1
0	387658	71.71	-1
0	388204	71.81	-1
0	388750	71.91	-1
0	389304	72.01	-1
0	389850	72.11	-1
0	390396	72.21	-1
0	390942	72.31	-1
0	391488	72.41	-1
0	392034	72.51	-1
0	392580	72.61	-1
0	393126	72.71	-1
0	393672	72.81	-1
0	394218	72.91	-1
0	394772	73.01	-1
0	395318	73.11	-1
0	395864	73.21	-1
0	396410	73.31	-1
0	396956	73.41	-1
0	397502	73.51	-1
0	398048	73.61	-1
0	398594	73.71	-1
0	399140	73.81	-1
0	399686	73.91	-1
0	400240	74.01	-1
0	400786	74.11	-1
0	401332	74.21	-1
0	401878	74.31	-1
0	402424	74.41	-1
0	402970	74.51	-1
0	403516	74.61	-1
0	404062	74.71	-1
0	404608	74.81	-1
0	405154	74.91	-1
0	405708	75.01	-1
0	406254	75.11	-1
0	406800	75.21	-1
0	407346	75.31	-1
0	407892	75.41	-1
0	408438	75.51	-1
0	408984	75.61	-1
0	409530	75.71	-1
0	410076	75.81	-1
0	410622	75.91	-1
0	411176	76.01	-1
0	411722	76.11	-1
0	412268	76.21	-1
0	412814	76.31	-1
0	413360	76.41	-1
0	413906	76.51	-1
0	414452	76.61	-1
0	414998	76.71	-1
0	415544	76.81	-1
0	416090	76.91	-1
0	416644	77.01	-1
0	417190	77.11	-1
0	417736	77.21	-1
0	418282	77.31	-1
0	418828	77.41	-1
0	419374	77.51	-1
0	419920	77.61	-1
0	420466	77.71	-1
0	421012	77.81	-1
0	421558	77.91	-1
0	422112	78.01	-1
0	422658	78.11	-1
0	423204	78.21	-1
0	423750	78.31	-1
0	424296	78.41	-1
0	424842	78.51	-1
0	425388	78.61	-1
0	425934	78.71	-1
0	426480	78.81	-1
0	427026	78.91	-1
0	427580	79.01	-1
0	428126	79.11	-1
0	428672	79.21	-1
0	429218	79.31	-1
0	429764	79.41	-1
0	430310	79.51	-1
0	430856	79.61	-1
0	431402	79.71	-1
0	431948	79.81	-1
0	432494	79.91	-1
0	433048	80.01	-1
0	433594	80.11	-1
0	434140	80.21	-1
0	434686	80.31	-1
0	435232	80.41	-1
0	435778	80.51	-1
0	436324	80.61	-1
0	436870	80.71	-1
0	437416	80.81	-1
0	437962	80.91	-1
0	438516	81.01	-1
0	439062	81.11	-1
0	439608	81.21	-1
0	440154	81.31	-1
0	440700	81.41	-1
0	441246	81.51	-1
0	441792	81.61	-1
0	442338	81.71	-1
0	442884	81.81	-1
0	443430	81.91	-1
0	443984	82.01	-1
0	444530	82.11	-1
0	445076	82.21	-1
0	445622	82.31	-1
0	446168	82.41	-1
0	446714	82.51	-1
0	447260	82.61	-1
0	447806	82.71	-1
0	448352	82.81	-1
0	448898	82.91	-1
0	449452	83.01	-1
0	449998	83.11	-1
0	450544	83.21	-1
0	451090	83.31	-1
0	451636	83.41	-1
0	452182	83.51	-1
0	452728	83.61	-1
0	453274	83.71	-1
0	453820	83.81	-1
0	454366	83.91	-1
0	454920	84.01	-1
0	455466	84.11	-1
0	456012	84.21	-1
0	456558	84.31	-1
0	457104	84.41	-1
0	457650	84.51	-1
0	458196	84.61	-1
0	458742	84.71	-1
0	459288	84.81	-1
0	459834	84.91	-1
0	460388	85.01	-1
0	460934	85.11	-1
0	461480	85.21	-1
0	462026	85.31	-1
0	462572	85.41	-1
0	463118	85.51	-1
0	463664	85.61	-1
0	464210	85.71	-1
0	464756	85.81	-1
0	465302	85.91	-1
0	465856	86.01	-1
0	466402	86.11	-1
0	466948	86.21	-1
0	467494	86.31	-1
0	468040	86.41	-1
0	468586	86.51	-1
0	469132	86.61	-1
0	469678	86.71	-1
0	470224	86.81	-1
0	470770	86.91	-1
0	471324	87.01	-1
0	471870	87.11	-1
0	472416	87.21	-1
0	472962	87.31	-1
0	473508	87.41	-1
0	474054	87.51	-1
0	474600	87.61	-1
0	475146	87.71	-1
0	475692	87.81	-1
0	476238	87.91	-1
0	476792	88.01	-1
0	477338	88.11	-1
0	477884	88.21	-1
0	478430	88.31	-1
0	478976	88.41	-1
0	479522	88.51	-1
0	480068	88.61	-1
0	480614	88.71	-1
0	481160	88.81	-1
0	481706	88.91	-1
0	482260	89.01	-1
0	482806	89.11	-1
0	483352	89.21	-1
0	483898	89.31	-1
0	484444	89.41	-1
0	484990	89.51	-1
0	485536	89.61	-1
0	486082	89.71	-1
0	486628	89.81	-1
0	487174	89.91	-1
0	487728	90.01	-1
0	488274	90.11	-1
0	488820	90.21	-1
0	489366	90.31	-1
0	489912	90.41	-1
0	490458	90.51	-1
0	491004	90.61	-1
0	491550	90.71	-1
0	492096	90.81	-1
0	492642	90.91	-1
0	493196	91.01	-1
0	493742	91.11	-1
0	494288	91.21	-1
0	494834	91.31	-1
0	495380	91.41	-1
0	495926	91.51	-1
0	496472	91.61	-1
0	497018	91.71	-1
0	497564	91.81	-1
0	498110	91.91	-1
0	498664	92.01	-1
0	499210	92.11	-1
0	499756	92.21	-1
0	500302	92.31	-1
0	500848	92.41	-1
0	501394	92.51	-1
0	501940	92.61	-1
0	502486	92.71	-1
0	503032	92.81	-1
0	503578	92.91	-1
0	504132	93.01	-1
0	504678	93.11	-1
0	505224	93.21	-1
0	505770	93.31	-1
0	506316	93.41	-1
0	506862	93.51	-1
0	507408	93.61	-1
0	507954	93.71	-1
0	508500	93.81	-1
0	509046	93.91	-1
0	509600	94.01	-1
0	510146	94.11	-1
0	510692	94.21	-1
0	511238	94.31	-1
0	511784	94.41	-1
0	512330	94.51	-1
0	512876	94.61	-1
0	513422	94.71	-1
0	513968	94.81	-1
0	514514	94.91	-1
0	515068	95.01	-1
0	515614	95.11	-1
0	516160	95.21	-1
0	516706	95.31	-1
0	517252	95.41	-1
0	517798	95.51	-1
0	518344	95.61	-1
0	518890	95.71	-1
0	519436	95.81	-1
0	519982	95.91	-1
0	520536	96.01	-1
0	521082	96.11	-1
0	521628	96.21	-1
0	522174	96.31	-1
0	522720	96.41	-1
0	523266	96.51	-1
0	523812	96.61	-1
0	524358	96.71	-1
0	524904	96.81	-1
0	525450	96.91	-1
0	526004	97.01	-1
0	526550	97.11	-1
0	527096	97.21	-1
0	527642	97.31	-1
0	528188	97.41	-1
0	528734	97.51	-1
0	529280	97.61	-1
0	529826	97.71	-1
0	530372	97.81	-1
0	530918	97.91	-1
0	531472	98.01	-1
0	532018	98.11	-1
0	532564	98.21	-1
0	533110	98.31	-1
0	533656	98.41	-1
0	534202	98.51	-1
0	534748	98.61	-1
0	535294	98.71	-1
0	535840	98.81	-1
0	536386	98.91	-1
0	536940	99.01	-1
0	537486	99.11	-1
0	538032	99.21	-1
0	538578	99.31	-1
0	539124	99.41	-1
0	539670	99.51	-1
0	540216	99.61	-1
0	540762	99.71	-1
0	541308	99.81	-1
0	541854	99.91	-1
0	542408	100.01	-1
0	542954	100.11	-1
0	543500	100.21	-1
0	544046	100.31	-1
0	544592	100.41	-1
0	545138	100.51	-1
0	545684	100.61	-1
0	546230	100.71	-1
0	546776	100.81	-1
0	547322	100.91	-1
0	547876	101.01	-1
0	548422	101.11	-1
0	548968	101.21	-1
0	549514	101.31	-1
0	550060	101.41	-1
0	550606	101.51	-1
0	551152	101.61	-1
0	551698	101.71	-1
0	552244	101.81	-1
0	552790	101.91	-1
0	553344	102.01	-1
0	553890	102.11	-1
0	554436	102.21	-1
0	554982	102.31	-1
0	555528	102.41	-1
0	556074	102.51	-1
0	556620	102.61	-1
0	557166	102.71	-1
0	557712	102.81	-1
0	558258	102.91	-1
0	558812	103.01	-1
0	559358	103.11	-1
0	559904	103.21	-1
0	560450	103.31	-1
0	560996	103.41	-1
0	561542	103.51	-1
0	562088	103.61	-1
0	562634	103.71	-1
0	563180	103.81	-1
0	563726	103.91	-1
0	564280	104.01	-1
0	564826	104.11	-1
0	565372	104.21	-1
0	565918	104.31	-1
0	566464	104.41	-1
0	567010	104.51	-1
0	567556	104.61	-1
0	568102	104.71	-1
0	568648	104.81	-1
0	569194	104.91	-1
0	569748	105.01	-1
0	570294	105.11	-1
0	570840	105.21	-1
0	571386	105.31	-1
0	571932	105.41	-1
0	572478	105.51	-1
0	573024	105.61	-1
0	573570	105.71	-1
0	574116	105.81	-1
0	574662	105.91	-1
0	575216	106.01	-1
0	575762	106.11	-1
0	576308	106.21	-1
0	576854	106.31	-1
0	577400	106.41	-1
0	577946	106.51	-1
0	578492	106.61	-1
0	579038	106.71	-1
0	579584	106.81	-1
0	580130	106.91	-1
0	580684	107.01	-1
0	581230	107.11	-1
0	581776	107.21	-1
0	582322	107.31	-1
0	582868	107.41	-1
0	583414	107.51	-1
0	583960	107.61	-1
0	584506	107.71	-1
0	585052	107.81	-1
0	585598	107.91	-1
0	586152	108.01	-1
0	586698	108.11	-1
0	587244	108.21	-1
0	587790	108.31	-1
0	588336	108.41	-1
0	588882	108.51	-1
0	589428	108.61	-1
0	589974	108.71	-1
0	590520	108.81	-1
0	591066	108.91	-1
0	591620	109.01	-1
0	592166	109.11	-1
0	592712	109.21	-1
0	593258	109.31	-1
0	593804	109.41	-1
0	594350	109.51	-1
0	594896	109.61	-1
0	595442	109.71	-1
0	595988	109.81	-1
0	596534	109.91	-1
0	597088	110.01	-1
0	597634	110.11	-1
0	598180	110.21	-1
0	598726	110.31	-1
0	599272	110.41	-1
0	599818	110.51	-1
0	600364	110.61	-1
0	600910	110.71	-1
0	601456	110.81	-1
0	602002	110.91	-1
0	602556	111.01	-1
0	603102	111.11	-1
0	603648	111.21	-1
0	604194	111.31	-1
0	604740	111.41	-1
0	605286	111.51	-1
0	605832	111.61	-1
0	606378	111.71	-1
0	606924	111.81	-1
0	607470	111.91	-1
0	608024	112.01	-1
0	608570	112.11	-1
0	609116	112.21	-1
0	609662	112.31	-1
0	610208	112.41	-1
0	610754	112.51	-1
0	611300	112.61	-1
0	611846	112.71	-1
0	612392	112.81	-1
0	612938	112.91	-1
0	613492	113.01	-1
0	614038	113.11	-1
0	614584	113.21	-1
0	615130	113.31	-1
0	615676	113.41	-1
0	616222	113.51	-1
0	616768	113.61	-1
0	617314	113.71	-1
0	617860	113.81	-1
0	618406	113.91	-1
0	618960	114.01	-1
0	619506	114.11	-1
0	620052	114.21	-1
0	620598	114.31	-1
0	621144	114.41	-1
0	621690	114.51	-1
0	622236	114.61	-1
0	622782	114.71	-1
0	623328	114.81	-1
0	623874	114.91	-1
0	624428	115.01	-1
0	624974	115.11	-1
0	625520	115.21	-1
0	626066	115.31	-1
0	626612	115.41	-1
0	627158	115.51	-1
0	627704	115.61	-1
0	628250	115.71	-1
0	628796	115.81	-1
0	629342	115.91	-1
0	629896	116.01	-1
0	630442	116.11	-1
0	630988	116.21	-1
0	631534	116.31	-1
0	632080	116.41	-1
0	632626	116.51	-1
0	633172	116.61	-1
0	633718	116.71	-1
0	634264	116.81	-1
0	634810	116.91	-1
0	635364	117.01	-1
0	635910	117.11	-1
0	636456	117.21	-1
0	637002	117.31	-1
0	637548	117.41	-1
0	638094	117.51	-1
0	638640	117.61	-1
0	639186	117.71	-1
0	639732	117.81	-1
0	640278	117.91	-1
0	640832	118.01	-1
0	641378	118.11	-1
0	641924	118.21	-1
0	642470	118.31	-1
0	643016	118.41	-1
0	643562	118.51	-1
0	644108	118.61	-1
0	644654	118.71	-1
0	645200	118.81	-1
0	645746	118.91	-1
0	646300	119.01	-1
0	646846	119.11	-1
0	647392	119.21	-1
0	647938	119.31	-1
0	648484	119.41	-1
0	649030	119.51	-1
0	649576	119.61	-1
0	650122	119.71	-1
0	650668	119.81	-1
0	651214	119.91	-1
1	113	1.11	0
1	659	1.21	0
1	1205	1.31	0
1	1751	1.41	0
1	2297	1.51	0
1	2843	1.61	0
1	3389	1.71	0
1	3935	1.81	0
1	4481	1.91	0
1	5035	2.01	0
1	5581	2.11	0
1	6127	2.21	0
1	6673	2.31	0
1	7219	2.41	0
1	7765	2.51	0
1	8311	2.61	0
1	8857	2.71	0
1	9403	2.81	0
1	9949	2.91	0
1	10503	3.01	0
1	11049	3.11	0
1	11595	3.21	0
1	12141	3.31	0
1	12687	3.41	0
1	13233	3.51	0
1	13779	3.61	0
1	14325	3.71	0
1	14871	3.81	0
1	15417	3.91	0
1	15971	4.01	0
1	16517	4.11	0
1	17063	4.21	0
1	17609	4.31	0
1	18155	4.41	0
1	18701	4.51	0
1	19247	4.61	0
1	19793	4.71	0
1	20339	4.81	0
1	20885	4.91	0
1	21439	5.01	0
1	21985	5.11	0
1	22531	5.21	0
1	23077	5.31	0
1	23623	5.41	0
1	24169	5.51	0
1	24715	5.61	0
1	25261	5.71	0
1	25807	5.81	0
1	26353	5.91	0
1	26907	6.01	0
1	27453	6.11	0
1	27999	6.21	0
1	28545	6.31	0
1	29091	6.41	0
1	29637	6.51	0
1	30183	6.61	0
1	30729	6.71	0
1	31275	6.81	0
1	31821	6.91	0
1	32375	7.01	0
1	32921	7.11	0
1	33467	7.21	0
1	34013	7.31	0
1	34559	7.41	0
1	35105	7.51	0
1	35651	7.61	0
1	36197	7.71	0
1	36743	7.81	0
1	37289	7.91	0
1	37843	8.01	0
1	38389	8.11	0
1	38935	8.21	0
1	39481	8.31	0
1	40027	8.41	0
1	40573	8.51	0
1	41119	8.61	0
1	41665	8.71	0
1	42211	8.81	0
1	42757	8.91	0
1	43311	9.01	0
1	43857	9.11	0
1	44403	9.21	0
1	44949	9.31	0
1	45495	9.41	0
1	46041	9.51	0
1	46587	9.61	0
1	47133	9.71	0
1	47679	9.81	0
1	48225	9.91	0
1	48779	10.01	0
1	49325	10.11	0
1	49871	10.21	0
1	50417	10.31	0
1	50963	10.41	0
1	51509	10.51	0
1	52055	10.61	0
1	52601	10.71	0
1	53147	10.81	0
1	53693	10.91	0
1	54248	11.01	0
1	55073	11.11	0
1	55619	11.21	0
1	56165	11.31	0
1	56711	11.41	0
1	57257	11.51	0
1	57803	11.61	0
1	58349	11.71	0
1	58895	11.81	0
1	59441	11.91	0
1	59995	12.01	0
1	60541	12.11	0
1	61087	12.21	0
1	61633	12.31	0
1	62179	12.41	0
1	62725	12.51	0
1	63271	12.61	0
1	63817	12.71	0
1	64363	12.81	0
1	64909	12.91	0
1	65463	13.01	0
1	66009	13.11	0
1	66555	13.21	0
1	67101	13.31	0
1	67647	13.41	0
1	68193	13.51	0
1	68739	13.61	0
1	69285	13.71	0
1	69831	13.81	0
1	70377	13.91	0
1	70931	14.01	0
1	71477	14.11	0
1	72023	14.21	0
1	72569	14.31	0
1	73115	14.41	0
1	73661	14.51	0
1	74207	14.61	0
1	74753	14.71	0
1	75299	14.81	0
1	75845	14.91	0
1	76399	15.01	0
1	76945	15.11	0
1	77491	15.21	0
1	78037	15.31	0
1	78583	15.41	0
1	79129	15.51	0
1	79675	15.61	0
1	80221	15.71	0
1	80767	15.81	0
1	81313	15.91	0
1	81867	16.01	0
1	82413	16.11	0
1	82959	16.21	0
1	83505	16.31	0
1	84051	16.41	0
1	84597	16.51	0
1	85143	16.61	0
1	85689	16.71	0
1	86235	16.81	0
1	86781	16.91	0
1	87335	17.01	0
1	87881	17.11	0
1	88427	17.21	0
1	88973	17.31	0
1	89519	17.41	0
1	90065	17.51	0
1	90611	17.61	0
1	91157	17.71	0
1	91703	17.81	0
1	92249	17.91	0
1	92803	18.01	0
1	93349	18.11	0
1	93895	18.21	0
1	94441	18.31	0
1	94987	18.41	0
1	95533	18.51	0
1	96079	18.61	0
1	96625	18.71	0
1	97171	18.81	0
1	97717	18.91	0
1	98271	19.01	0
1	98817	19.11	0
1	99363	19.21	0
1	99909	19.31	0
1	100455	19.41	0
1	101001	19.51	0
1	101547	19.61	0
1	102093	19.71	0
1	102639	19.81	0
1	103185	19.91	0
1	103739	20.01	0
1	104285	20.11	0
1	104831	20.21	0
1	105377	20.31	0
1	105923	20.41	0
1	106469	20.51	0
1	107015	20.61	0
1	107561	20.71	0
1	108107	20.81	0
1	108653	20.91	0
1	109207	21.01	0
1	109753	21.11	0
1	110299	21.21	0
1	110845	21.31	0
1	111391	21.41	0
1	111937	21.51	0
1	112483	21.61	0
1	113029	21.71	0
1	113575	21.81	0
1	114121	21.91	0
1	114675	22.01	0
1	115221	22.11	0
1	115767	22.21	0
1	116313	22.31	0
1	116859	22.41	0
1	117405	22.51	0
1	117951	22.61	0
1	118497	22.71	0
1	119043	22.81	0
1	119589	22.91	0
1	120143	23.01	0
1	120689	23.11	0
1	121235	23.21	0
1	121781	23.31	0
1	122327	23.41	0
1	122873	23.51	0
1	123419	23.61	0
1	123965	23.71	0
1	124511	23.81	0
1	125057	23.91	0
1	125611	24.01	0
1	126157	24.11	0
1	126703	24.21	0
1	127249	24.31	0
1	127795	24.41	0
1	128341	24.51	0
1	128887	24.61	0
1	129433	24.71	0
1	129979	24.81	0
1	130525	24.91	0
1	131079	25.01	0
1	131625	25.11	0
1	132171	25.21	0
1	132717	25.31	0
1	133263	25.41	0
1	133809	25.51	0
1	134355	25.61	0
1	134901	25.71	0
1	135447	25.81	0
1	135993	25.91	0
1	136547	26.01	0
1	137093	26.11	0
1	137639	26.21	0
1	138185	26.31	0
1	138731	26.41	0
1	139277	26.51	0
1	139823	26.61	0
1	140369	26.71	0
1	140915	26.81	0
1	141461	26.91	0
1	142015	27.01	0
1	142561	27.11	0
1	143107	27.21	0
1	143653	27.31	0
1	144199	27.41	0
1	144745	27.51	0
1	145291	27.61	0
1	145837	27.71	0
1	146383	27.81	0
1	146929	27.91	0
1	147483	28.01	0
1	148029	28.11	0
1	148575	28.21	0
1	149121	28.31	0
1	149667	28.41	0
1	150213	28.51	0
1	150759	28.61	0
1	151305	28.71	0
1	151851	28.81	0
1	152397	28.91	0
1	152951	29.01	0
1	153497	29.11	0
1	154043	29.21	0
1	154589	29.31	0
1	155135	29.41	0
1	155681	29.51	0
1	156227	29.61	0
1	156773	29.71	0
1	157319	29.81	0
1	157865	29.91	0
1	158419	30.01	0
1	158965	30.11	0
1	159511	30.21	0
1	160057	30.31	0
1	160603	30.41	0
1	161149	30.51	0
1	161695	30.61	0
1	162241	30.71	0
1	162787	30.81	0
1	163333	30.91	0
1	163887	31.01	0
1	164433	31.11	0
1	164979	31.21	0
1	165525	31.31	0
1	166071	31.41	0
1	166617	31.51	0
1	167163	31.61	0
1	167709	31.71	0
1	168255	31.81	0
1	168801	31.91	0
1	169355	32.01	0
1	169901	32.11	0
1	170447	32.21	0
1	170993	32.31	0
1	171539	32.41	0
1	172085	32.51	0
1	172631	32.61	0
1	173177	32.71	0
1	173723	32.81	0
1	174269	32.91	0
1	174823	33.01	0
1	175369	33.11	0
1	175915	33.21	0
1	176461	33.31	0
1	177007	33.41	0
1	177553	33.51	0
1	178099	33.61	0
1	178645	33.71	0
1	179191	33.81	0
1	179737	33.91	0
1	180291	34.01	0
1	180837	34.11	0
1	181383	34.21	0
1	181929	34.31	0
1	182475	34.41	0
1	183021	34.51	0
1	183567	34.61	0
1	184113	34.71	0
1	184659	34.81	0
1	185205	34.91	0
1	185759	35.01	0
1	186305	35.11	0
1	186851	35.21	0
1	187397	35.31	0
1	187943	35.41	0
1	188489	35.51	0
1	189035	35.61	0
1	189581	35.71	0
1	190127	35.81	0
1	190673	35.91	0
1	191227	36.01	0
1	191773	36.11	0
1	192319	36.21	0
1	192865	36.31	0
1	193411	36.41	0
1	193957	36.51	0
1	194503	36.61	0
1	195049	36.71	0
1	195595	36.81	0
1	196141	36.91	0
1	196695	37.01	0
1	197241	37.11	0
1	197787	37.21	0
1	198333	37.31	0
1	198879	37.41	0
1	199425	37.51	0
1	199971	37.61	0
1	200517	37.71	0
1	201063	37.81	0
1	201609	37.91	0
1	202163	38.01	0
1	202709	38.11	0
1	203255	38.21	0
1	203801	38.31	0
1	204347	38.41	0
1	204893	38.51	0
1	205439	38.61	0
1	205985	38.71	0
1	206531	38.81	0
1	207077	38.91	0
1	207631	39.01	0
1	208177	39.11	0
1	208723	39.21	0
1	209269	39.31	0
1	209815	39.41	0
1	210361	39.51	0
1	210907	39.61	0
1	211453	39.71	0
1	211999	39.81	0
1	212545	39.91	0
1	213099	40.01	0
1	213645	40.11	0
1	214191	40.21	0
1	214737	40.31	0
1	215283	40.41	0
1	215829	40.51	0
1	216375	40.61	0
1	216921	40.71	0
1	217467	40.81	0
1	218013	40.91	0
1	218567	41.01	0
1	219113	41.11	0
1	219659	41.21	0
1	220205	41.31	0
1	220751	41.41	0
1	221297	41.51	0
1	221843	41.61	0
1	222389	41.71	0
1	222935	41.81	0
1	223481	41.91	0
1	224035	42.01	0
1	224581	42.11	0
1	225127	42.21	0
1	225673	42.31	0
1	226219	42.41	0
1	226765	42.51	0
1	227311	42.61	0
1	227857	42.71	0
1	228403	42.81	0
1	228949	42.91	0
1	229503	43.01	0
1	230049	43.11	0
1	230595	43.21	0
1	231141	43.31	0
1	231687	43.41	0
1	232233	43.51	0
1	232779	43.61	0
1	233325	43.71	0
1	233871	43.81	0
1	234417	43.91	0
1	234971	44.01	0
1	235517	44.11	0
1	236063	44.21	0
1	236609	44.31	0
1	237155	44.41	0
1	237701	44.51	0
1	238247	44.61	0
1	238793	44.71	0
1	239339	44.81	0
1	239885	44.91	0
1	240439	45.01	0
1	240985	45.11	0
1	241531	45.21	0
1	242077	45.31	0
1	242623	45.41	0
1	243169	45.51	0
1	243715	45.61	0
1	244261	45.71	0
1	244807	45.81	0
1	245353	45.91	0
1	245907	46.01	0
1	246453	46.11	0
1	246999	46.21	0
1	247545	46.31	0
1	248091	46.41	0
1	248637	46.51	0
1	249183	46.61	0
1	249729	46.71	0
1	250275	46.81	0
1	250821	46.91	0
1	251375	47.01	0
1	251921	47.11	0
1	252467	47.21	0
1	253013	47.31	0
1	253559	47.41	0
1	254105	47.51	0
1	254651	47.61	0
1	255197	47.71	0
1	255743	47.81	0
1	256289	47.91	0
1	256843	48.01	0
1	257389	48.11	0
1	257935	48.21	0
1	258481	48.31	0
1	259027	48.41	0
1	259573	48.51	0
1	260119	48.61	0
1	260665	48.71	0
1	261211	48.81	0
1	261757	48.91	0
1	262311	49.01	0
1	262857	49.11	0
1	263403	49.21	0
1	263949	49.31	0
1	264495	49.41	0
1	265041	49.51	0
1	265587	49.61	0
1	266133	49.71	0
1	266679	49.81	0
1	267225	49.91	0
1	267779	50.01	0
1	268325	50.11	0
1	268871	50.21	0
1	269417	50.31	0
1	269963	50.41	0
1	270509	50.51	0
1	271055	50.61	0
1	271601	50.71	0
1	272147	50.81	0
1	272693	50.91	0
1	273247	51.01	0
1	273793	51.11	0
1	274339	51.21	0
1	274885	51.31	0
1	275431	51.41	0
1	275977	51.51	0
1	276523	51.61	0
1	277069	51.71	0
1	277615	51.81	0
1	278161	51.91	0
1	278715	52.01	0
1	279261	52.11	0
1	279807	52.21	0
1	280353	52.31	0
1	280899	52.41	0
1	281445	52.51	0
1	281991	52.61	0
1	282537	52.71	0
1	283083	52.81	0
1	283629	52.91	0
1	284183	53.01	0
1	284729	53.11	0
1	285275	53.21	0
1	285821	53.31	0
1	286367	53.41	0
1	286913	53.51	0
1	287459	53.61	0
1	288005	53.71	0
1	288551	53.81	0
1	289097	53.91	0
1	289651	54.01	0
1	290197	54.11	0
1	290743	54.21	0
1	291289	54.31	0
1	291835	54.41	0
1	292381	54.51	0
1	292927	54.61	0
1	293473	54.71	0
1	294019	54.81	0
1	294565	54.91	0
1	295119	55.01	0
1	295665	55.11	0
1	296211	55.21	0
1	296757	55.31	0
1	297303	55.41	0
1	297849	55.51	0
1	298395	55.61	0
1	298941	55.71	0
1	299487	55.81	0
1	300033	55.91	0
1	300587	56.01	0
1	301133	56.11	0
1	301679	56.21	0
1	302225	56.31	0
1	302771	56.41	0
1	303317	56.51	0
1	303863	56.61	0
1	304409	56.71	0
1	304955	56.81	0
1	305501	56.91	0
1	306055	57.01	0
1	306601	57.11	0
1	307147	57.21	0
1	307693	57.31	0
1	308239	57.41	0
1	308785	57.51	0
1	309331	57.61	0
1	309877	57.71	0
1	310423	57.81	0
1	310969	57.91	0
1	311523	58.01	0
1	312069	58.11	0
1	312615	58.21	0
1	313161	58.31	0
1	313707	58.41	0
1	314253	58.51	0
1	314799	58.61	0
1	315345	58.71	0
1	315891	58.81	0
1	316437	58.91	0
1	316991	59.01	0
1	317537	59.11	0
1	318083	59.21	0
1	318629	59.31	0
1	319175	59.41	0
1	319721	59.51	0
1	320267	59.61	0
1	320813	59.71	0
1	321359	59.81	0
1	321905	59.91	0
1	322459	60.01	0
1	323005	60.11	0
1	323551	60.21	0
1	324097	60.31	0
1	324643	60.41	0
1	325189	60.51	0
1	325735	60.61	0
1	326281	60.71	0
1	326827	60.81	0
1	327373	60.91	0
1	327927	61.01	0
1	328473	61.11	0
1	329019	61.21	0
1	329565	61.31	0
1	330111	61.41	0
1	330657	61.51	0
1	332133	61.61	0
1	332679	61.71	0
1	333225	61.81	0
1	333771	61.91	0
1	334325	62.01	0
1	334872	62.11	0
1	335418	62.21	0
1	335964	62.31	0
1	336510	62.41	0
1	337056	62.51	0
1	337603	62.61	0
1	338149	62.71	0
1	338695	62.81	0
1	339241	62.91	0
1	339795	63.01	0
1	340342	63.11	0
1	340888	63.21	0
1	341434	63.31	0
1	341980	63.41	0
1	342526	63.51	0
1	343073	63.61	0
1	343619	63.71	0
1	344165	63.81	0
1	344711	63.91	0
1	345265	64.01	0
1	345812	64.11	0
1	346358	64.21	0
1	346904	64.31	0
1	347450	64.41	0
1	347996	64.51	0
1	348543	64.61	0
1	349089	64.71	0
1	349635	64.81	0
1	350181	64.91	0
1	350735	65.01	0
1	351282	65.11	0
1	351828	65.21	0
1	352374	65.31	0
1	352920	65.41	0
1	353466	65.51	0
1	354013	65.61	0
1	354559	65.71	0
1	355105	65.81	0
1	355651	65.91	0
1	356205	66.01	0
1	356752	66.11	0
1	357298	66.21	0
1	357844	66.31	0
1	358390	66.41	0
1	358936	66.51	0
1	359483	66.61	0
1	360029	66.71	0
1	360575	66.81	0
1	361121	66.91	0
1	361675	67.01	0
1	362222	67.11	0
1	362768	67.21	0
1	363314	67.31	0
1	363860	67.41	0
1	364406	67.51	0
1	364953	67.61	0
1	365499	67.71	0
1	366045	67.81	0
1	366591	67.91	0
1	367145	68.01	0
1	367692	68.11	0
1	368238	68.21	0
1	368784	68.31	0
1	369330	68.41	0
1	369876	68.51	0
1	370423	68.61	0
1	370969	68.71	0
1	371515	68.81	0
1	372061	68.91	0
1	372615	69.01	0
1	373162	69.11	0
1	373708	69.21	0
1	374254	69.31	0
1	374800	69.41	0
1	375346	69.51	0
1	375893	69.61	0
1	376439	69.71	0
1	376985	69.81	0
1	377531	69.91	0
1	378085	70.01	0
1	378632	70.11	0
1	379178	70.21	0
1	379724	70.31	0
1	380270	70.41	0
1	380816	70.51	0
1	381363	70.61	0
1	381909	70.71	0
1	382455	70.81	0
1	383001	70.91	0
1	383555	71.01	0
1	384102	71.11	0
1	384648	71.21	0
1	385194	71.31	0
1	385740	71.41	0
1	386286	71.51	0
1	387112	71.61	0
1	387658	71.71	0
1	388204	71.81	0
1	388750	71.91	0
1	389304	72.01	0
1	389850	72.11	0
1	390396	72.21	0
1	390942	72.31	0
1	391488	72.41	0
1	392034	72.51	0
1	392580	72.61	0
1	393126	72.71	0
1	393672	72.81	0
1	394218	72.91	0
1	394772	73.01	0
1	395318	73.11	0
1	395864	73.21	0
1	396410	73.31	0
1	396956	73.41	0
1	397502	73.51	0
1	398048	73.61	0
1	398594	73.71	0
1	399140	73.81	0
1	399686	73.91	0
1	400240	74.01	0
1	400786	74.11	0
1	401332	74.21	0
1	401878	74.31	0
1	402424	74.41	0
1	402970	74.51	0
1	403516	74.61	0
1	404062	74.71	0
1	404608	74.81	0
1	405154	74.91	0
1	405708	75.01	0
1	406254	75.11	0
1	406800	75.21	0
1	407346	75.31	0
1	407892	75.41	0
1	408438	75.51	0
1	408984	75.61	0
1	409530	75.71	0
1	410076	75.81	0
1	410622	75.91	0
1	411176	76.01	0
1	411722	76.11	0
1	412268	76.21	0
1	412814	76.31	0
1	413360	76.41	0
1	413906	76.51	0
1	414452	76.61	0
1	414998	76.71	0
1	415544	76.81	0
1	416090	76.91	0
1	416644	77.01	0
1	417190	77.11	0
1	417736	77.21	0
1	418282	77.31	0
1	418828	77.41	0
1	419374	77.51	0
1	419920	77.61	0
1	420466	77.71	0
1	421012	77.81	0
1	421558	77.91	0
1	422112	78.01	0
1	422658	78.11	0
1	423204	78.21	0
1	423750	78.31	0
1	424296	78.41	0
1	424842	78.51	0
1	425388	78.61	0
1	425934	78.71	0
1	426480	78.81	0
1	427026	78.91	0
1	427580	79.01	0
1	428126	79.11	0
1	428672	79.21	0
1	429218	79.31	0
1	429764	79.41	0
1	430310	79.51	0
1	430856	79.61	0
1	431402	79.71	0
1	431948	79.81	0
1	432494	79.91	0
1	433048	80.01	0
1	433594	80.11	0
1	434140	80.21	0
1	434686	80.31	0
1	435232	80.41	0
1	435778	80.51	0
1	436324	80.61	0
1	436870	80.71	0
1	437416	80.81	0
1	437962	80.91	0
1	438516	81.01	0
1	439062	81.11	0
1	439608	81.21	0
1	440154	81.31	0
1	440700	81.41	0
1	441246	81.51	0
1	441792	81.61	0
1	442338	81.71	0
1	442884	81.81	0
1	443430	81.91	0
1	443984	82.01	0
1	444530	82.11	0
1	445076	82.21	0
1	445622	82.31	0
1	446168	82.41	0
1	446714	82.51	0
1	447260	82.61	0
1	447806	82.71	0
1	448352	82.81	0
1	448898	82.91	0
1	449452	83.01	0
1	449998	83.11	0
1	450544	83.21	0
1	451090	83.31	0
1	451636	83.41	0
1	452182	83.51	0
1	452728	83.61	0
1	453274	83.71	0
1	453820	83.81	0
1	454366	83.91	0
1	454920	84.01	0
1	455466	84.11	0
1	456012	84.21	0
1	456558	84.31	0
1	457104	84.41	0
1	457650	84.51	0
1	458196	84.61	0
1	458742	84.71	0
1	459288	84.81	0
1	459834	84.91	0
1	460388	85.01	0
1	460934	85.11	0
1	461480	85.21	0
1	462026	85.31	0
1	462572	85.41	0
1	463118	85.51	0
1	463664	85.61	0
1	464210	85.71	0
1	464756	85.81	0
1	465302	85.91	0
1	465856	86.01	0
1	466402	86.11	0
1	466948	86.21	0
1	467494	86.31	0
1	468040	86.41	0
1	468586	86.51	0
1	469132	86.61	0
1	469678	86.71	0
1	470224	86.81	0
1	470770	86.91	0
1	471324	87.01	0
1	471870	87.11	0
1	472416	87.21	0
1	472962	87.31	0
1	473508	87.41	0
1	474054	87.51	0
1	474600	87.61	0
1	475146	87.71	0
1	475692	87.81	0
1	476238	87.91	0
1	476792	88.01	0
1	477338	88.11	0
1	477884	88.21	0
1	478430	88.31	0
1	478976	88.41	0
1	479522	88.51	0
1	480068	88.61	0
1	480614	88.71	0
1	481160	88.81	0
1	481706	88.91	0
1	482260	89.01	0
1	482806	89.11	0
1	483352	89.21	0
1	483898	89.31	0
1	484444	89.41	0
1	484990	89.51	0
1	485536	89.61	0
1	486082	89.71	0
1	486628	89.81	0
1	487174	89.91	0
1	487728	90.01	0
1	488274	90.11	0
1	488820	90.21	0
1	489366	90.31	0
1	489912	90.41	0
1	490458	90.51	0
1	491004	90.61	0
1	491550	90.71	0
1	492096	90.81	0
1	492642	90.91	0
1	493196	91.01	0
1	493742	91.11	0
1	494288	91.21	0
1	494834	91.31	0
1	495380	91.41	0
1	495926	91.51	0
1	496472	91.61	0
1	497018	91.71	0
1	497564	91.81	0
1	498110	91.91	0
1	498664	92.01	0
1	499210	92.11	0
1	499756	92.21	0
1	500302	92.31	0
1	500848	92.41	0
1	501394	92.51	0
1	501940	92.61	0
1	502486	92.71	0
1	503032	92.81	0
1	503578	92.91	0
1	504132	93.01	0
1	504678	93.11	0
1	505224	93.21	0
1	505770	93.31	0
1	506316	93.41	0
1	506862	93.51	0
1	507408	93.61	0
1	507954	93.71	0
1	508500	93.81	0
1	509046	93.91	0
1	509600	94.01	0
1	510146	94.11	0
1	510692	94.21	0
1	511238	94.31	0
1	511784	94.41	0
1	512330	94.51	0
1	512876	94.61	0
1	513422	94.71	0
1	513968	94.81	0
1	514514	94.91	0
1	515068	95.01	0
1	515614	95.11	0
1	516160	95.21	0
1	516706	95.31	0
1	517252	95.41	0
1	517798	95.51	0
1	518344	95.61	0
1	518890	95.71	0
1	519436	95.81	0
1	519982	95.91	0
1	520536	96.01	0
1	521082	96.11	0
1	521628	96.21	0
1	522174	96.31	0
1	522720	96.41	0
1	523266	96.51	0
1	523812	96.61	0
1	524358	96.71	0
1	524904	96.81	0
1	525450	96.91	0
1	526004	97.01	0
1	526550	97.11	0
1	527096	97.21	0
1	527642	97.31	0
1	528188	97.41	0
1	528734	97.51	0
1	529280	97.61	0
1	529826	97.71	0
1	530372	97.81	0
1	530918	97.91	0
1	531472	98.01	0
1	532018	98.11	0
1	532564	98.21	0
1	533110	98.31	0
1	533656	98.41	0
1	534202	98.51	0
1	534748	98.61	0
1	535294	98.71	0
1	535840	98.81	0
1	536386	98.91	0
1	536940	99.01	0
1	537486	99.11	0
1	538032	99.21	0
1	538578	99.31	0
1	539124	99.41	0
1	539670	99.51	0
1	540216	99.61	0
1	540762	99.71	0
1	541308	99.81	0
1	541854	99.91	0
1	542408	100.01	0
1	542954	100.11	0
1	543500	100.21	0
1	544046	100.31	0
1	544592	100.41	0
1	545138	100.51	0
1	545684	100.61	0
1	546230	100.71	0
1	546776	100.81	0
1	547322	100.91	0
1	547876	101.01	0
1	548422	101.11	0
1	548968	101.21	0
1	549514	101.31	0
1	550060	101.41	0
1	550606	101.51	0
1	551152	101.61	0
1	551698	101.71	0
1	552244	101.81	0
1	552790	101.91	0
1	553344	102.01	0
1	553890	102.11	0
1	554436	102.21	0
1	554982	102.31	0
1	555528	102.41	0
1	556074	102.51	0
1	556620	102.61	0
1	557166	102.71	0
1	557712	102.81	0
1	558258	102.91	0
1	558812	103.01	0
1	559358	103.11	0
1	559904	103.21	0
1	560450	103.31	0
1	560996	103.41	0
1	561542	103.51	0
1	562088	103.61	0
1	562634	103.71	0
1	563180	103.81	0
1	563726	103.91	0
1	564280	104.01	0
1	564826	104.11	0
1	565372	104.21	0
1	565918	104.31	0
1	566464	104.41	0
1	567010	104.51	0
1	567556	104.61	0
1	568102	104.71	0
1	568648	104.81	0
1	569194	104.91	0
1	569748	105.01	0
1	570294	105.11	0
1	570840	105.21	0
1	571386	105.31	0
1	571932	105.41	0
1	572478	105.51	0
1	573024	105.61	0
1	573570	105.71	0
1	574116	105.81	0
1	574662	105.91	0
1	575216	106.01	0
1	575762	106.11	0
1	576308	106.21	0
1	576854	106.31	0
1	577400	106.41	0
1	577946	106.51	0
1	578492	106.61	0
1	579038	106.71	0
1	579584	106.81	0
1	580130	106.91	0
1	580684	107.01	0
1	581230	107.11	0
1	581776	107.21	0
1	582322	107.31	0
1	582868	107.41	0
1	583414	107.51	0
1	583960	107.61	0
1	584506	107.71	0
1	585052	107.81	0
1	585598	107.91	0
1	586152	108.01	0
1	586698	108.11	0
1	587244	108.21	0
1	587790	108.31	0
1	588336	108.41	0
1	588882	108.51	0
1	589428	108.61	0
1	589974	108.71	0
1	590520	108.81	0
1	591066	108.91	0
1	591620	109.01	0
1	592166	109.11	0
1	592712	109.21	0
1	593258	109.31	0
1	593804	109.41	0
1	594350	109.51	0
1	594896	109.61	0
1	595442	109.71	0
1	595988	109.81	0
1	596534	109.91	0
1	597088	110.01	0
1	597634	110.11	0
1	598180	110.21	0
1	598726	110.31	0
1	599272	110.41	0
1	599818	110.51	0
1	600364	110.61	0
1	600910	110.71	0
1	601456	110.81	0
1	602002	110.91	0
1	602556	111.01	0
1	603102	111.11	0
1	603648	111.21	0
1	604194	111.31	0
1	604740	111.41	0
1	605286	111.51	0
1	605832	111.61	0
1	606378	111.71	0
1	606924	111.81	0
1	607470	111.91	0
1	608024	112.01	0
1	608570	112.11	0
1	609116	112.21	0
1	609662	112.31	0
1	610208	112.41	0
1	610754	112.51	0
1	611300	112.61	0
1	611846	112.71	0
1	612392	112.81	0
1	612938	112.91	0
1	613492	113.01	0
1	614038	113.11	0
1	614584	113.21	0
1	615130	113.31	0
1	615676	113.41	0
1	616222	113.51	0
1	616768	113.61	0
1	617314	113.71	0
1	617860	113.81	0
1	618406	113.91	0
1	618960	114.01	0
1	619506	114.11	0
1	620052	114.21	0
1	620598	114.31	0
1	621144	114.41	0
1	621690	114.51	0
1	622236	114.61	0
1	622782	114.71	0
1	623328	114.81	0
1	623874	114.91	0
1	624428	115.01	0
1	624974	115.11	0
1	625520	115.21	0
1	626066	115.31	0
1	626612	115.41	0
1	627158	115.51	0
1	627704	115.61	0
1	628250	115.71	0
1	628796	115.81	0
1	629342	115.91	0
1	629896	116.01	0
1	630442	116.11	0
1	630988	116.21	0
1	631534	116.31	0
1	632080	116.41	0
1	632626	116.51	0
1	633172	116.61	0
1	633718	116.71	0
1	634264	116.81	0
1	634810	116.91	0
1	635364	117.01	0
1	635910	117.11	0
1	636456	117.21	0
1	637002	117.31	0
1	637548	117.41	0
1	638094	117.51	0
1	638640	117.61	0
1	639186	117.71	0
1	639732	117.81	0
1	640278	117.91	0
1	640832	118.01	0
1	641378	118.11	0
1	641924	118.21	0
1	642470	118.31	0
1	643016	118.41	0
1	643562	118.51	0
1	644108	118.61	0
1	644654	118.71	0
1	645200	118.81	0
1	645746	118.91	0
1	646300	119.01	0
1	646846	119.11	0
1	647392	119.21	0
1	647938	119.31	0
1	648484	119.41	0
1	649030	119.51	0
1	649576	119.61	0
1	650122	119.71	0
1	650668	119.81	0
1	651214	119.91	0
2	113	1.11	0
2	659	1.21	0
2	1205	1.31	0
2	1751	1.41	0
2	2297	1.51	0
2	2843	1.61	0
2	3389	1.71	0
2	3935	1.81	0
2	4481	1.91	0
2	5035	2.01	0
2	5581	2.11	0
2	6127	2.21	0
2	6673	2.31	0
2	7219	2.41	0
2	7765	2.51	0
2	8311	2.61	0
2	8857	2.71	0
2	9403	2.81	0
2	9949	2.91	0
2	10503	3.01	0
2	11049	3.11	0
2	11595	3.21	0
2	12141	3.31	0
2	12687	3.41	0
2	13233	3.51	0
2	13779	3.61	0
2	14325	3.71	0
2	14871	3.81	0
2	15417	3.91	0
2	15971	4.01	0
2	16517	4.11	0
2	17063	4.21	0
2	17609	4.31	0
2	18155	4.41	0
2	18701	4.51	0
2	19247	4.61	0
2	19793	4.71	0
2	20339	4.81	0
2	20885	4.91	0
2	21439	5.01	0
2	21985	5.11	0
2	22531	5.21	0
2	23077	5.31	0
2	23623	5.41	0
2	24169	5.51	0
2	24715	5.61	0
2	25261	5.71	0
2	25807	5.81	0
2	26353	5.91	0
2	26907	6.01	0
2	27453	6.11	0
2	27999	6.21	0
2	28545	6.31	0
2	29091	6.41	0
2	29637	6.51	0
2	30183	6.61	0
2	30729	6.71	0
2	31275	6.81	0
2	31821	6.91	0
2	32375	7.01	0
2	32921	7.11	0
2	33467	7.21	0
2	34013	7.31	0
2	34559	7.41	0
2	35105	7.51	0
2	35651	7.61	0
2	36197	7.71	0
2	36743	7.81	0
2	37289	7.91	0
2	37843	8.01	0
2	38389	8.11	0
2	38935	8.21	0
2	39481	8.31	0
2	40027	8.41	0
2	40573	8.51	0
2	41119	8.61	0
2	41665	8.71	0
2	42211	8.81	0
2	42757	8.91	0
2	43311	9.01	0
2	43857	9.11	0
2	44403	9.21	0
2	44949	9.31	0
2	45495	9.41	0
2	46041	9.51	0
2	46587	9.61	0
2	47133	9.71	0
2	47679	9.81	0
2	48225	9.91	0
2	48779	10.01	0
2	49325	10.11	0
2	49871	10.21	0
2	50417	10.31	0
2	50963	10.41	0
2	51509	10.51	0
2	52055	10.61	0
2	52601	10.71	0
2	53147	10.81	0
2	53693	10.91	0
2	54248	11.01	0
2	55073	11.11	0
2	55619	11.21	0
2	56165	11.31	0
2	56711	11.41	0
2	57257	11.51	0
2	57803	11.61	0
2	58349	11.71	0
2	58895	11.81	0
2	59441	11.91	0
2	59995	12.01	0
2	60541	12.11	0
2	61087	12.21	0
2	61633	12.31	0
2	62179	12.41	0
2	62725	12.51	0
2	63271	12.61	0
2	63817	12.71	0
2	64363	12.81	0
2	64909	12.91	0
2	65463	13.01	0
2	66009	13.11	0
2	66555	13.21	0
2	67101	13.31	0
2	67647	13.41	0
2	68193	13.51	0
2	68739	13.61	0
2	69285	13.71	0
2	69831	13.81	0
2	70377	13.91	0
2	70931	14.01	0
2	71477	14.11	0
2	72023	14.21	0
2	72569	14.31	0
2	73115	14.41	0
2	73661	14.51	0
2	74207	14.61	0
2	74753	14.71	0
2	75299	14.81	0
2	75845	14.91	0
2	76399	15.01	0
2	76945	15.11	0
2	77491	15.21	0
2	78037	15.31	0
2	78583	15.41	0
2	79129	15.51	0
2	79675	15.61	0
2	80221	15.71	0
2	80767	15.81	0
2	81313	15.91	0
2	81867	16.01	0
2	82413	16.11	0
2	82959	16.21	0
2	83505	16.31	0
2	84051	16.41	0
2	84597	16.51	0
2	85143	16.61	0
2	85689	16.71	0
2	86235	16.81	0
2	86781	16.91	0
2	87335	17.01	0
2	87881	17.11	0
2	88427	17.21	0
2	88973	17.31	0
2	89519	17.41	0
2	90065	17.51	0
2	90611	17.61	0
2	91157	17.71	0
2	91703	17.81	0
2	92249	17.91	0
2	92803	18.01	0
2	93349	18.11	0
2	93895	18.21	0
2	94441	18.31	0
2	94987	18.41	0
2	95533	18.51	0
2	96079	18.61	0
2	96625	18.71	0
2	97171	18.81	0
2	97717	18.91	0
2	98271	19.01	0
2	98817	19.11	0
2	99363	19.21	0
2	99909	19.31	0
2	100455	19.41	0
2	101001	19.51	0
2	101547	19.61	0
2	102093	19.71	0
2	102639	19.81	0
2	103185	19.91	0
2	103739	20.01	0
2	104285	20.11	0
2	104831	20.21	0
2	105377	20.31	0
2	105923	20.41	0
2	106469	20.51	0
2	107015	20.61	0
2	107561	20.71	0
2	108107	20.81	0
2	108653	20.91	0
2	109207	21.01	0
2	109753	21.11	0
2	110299	21.21	0
2	110845	21.31	0
2	111391	21.41	0
2	111937	21.51	0
2	112483	21.61	0
2	113029	21.71	0
2	113575	21.81	0
2	114121	21.91	0
2	114675	22.01	0
2	115221	22.11	0
2	115767	22.21	0
2	116313	22.31	0
2	116859	22.41	0
2	117405	22.51	0
2	117951	22.61	0
2	118497	22.71	0
2	119043	22.81	0
2	119589	22.91	0
2	120143	23.01	0
2	120689	23.11	0
2	121235	23.21	0
2	121781	23.31	0
2	122327	23.41	0
2	122873	23.51	0
2	123419	23.61	0
2	123965	23.71	0
2	124511	23.81	0
2	125057	23.91	0
2	125611	24.01	0
2	126157	24.11	0
2	126703	24.21	0
2	127249	24.31	0
2	127795	24.41	0
2	128341	24.51	0
2	128887	24.61	0
2	129433	24.71	0
2	129979	24.81	0
2	130525	24.91	0
2	131079	25.01	0
2	131625	25.11	0
2	132171	25.21	0
2	132717	25.31	0
2	133263	25.41	0
2	133809	25.51	0
2	134355	25.61	0
2	134901	25.71	0
2	135447	25.81	0
2	135993	25.91	0
2	136547	26.01	0
2	137093	26.11	0
2	137639	26.21	0
2	138185	26.31	0
2	138731	26.41	0
2	139277	26.51	0
2	139823	26.61	0
2	140369	26.71	0
2	140915	26.81	0
2	141461	26.91	0
2	142015	27.01	0
2	142561	27.11	0
2	143107	27.21	0
2	143653	27.31	0
2	144199	27.41	0
2	144745	27.51	0
2	145291	27.61	0
2	145837	27.71	0
2	146383	27.81	0
2	146929	27.91	0
2	147483	28.01	0
2	148029	28.11	0
2	148575	28.21	0
2	149121	28.31	0
2	149667	28.41	0
2	150213	28.51	0
2	150759	28.61	0
2	151305	28.71	0
2	151851	28.81	0
2	152397	28.91	0
2	152951	29.01	0
2	153497	29.11	0
2	154043	29.21	0
2	154589	29.31	0
2	155135	29.41	0
2	155681	29.51	0
2	156227	29.61	0
2	156773	29.71	0
2	157319	29.81	0
2	157865	29.91	0
2	158419	30.01	0
2	158965	30.11	0
2	159511	30.21	0
2	160057	30.31	0
2	160603	30.41	0
2	161149	30.51	0
2	161695	30.61	0
2	162241	30.71	0
2	162787	30.81	0
2	163333	30.91	0
2	163887	31.01	0
2	164433	31.11	0
2	164979	31.21	0
2	165525	31.31	0
2	166071	31.41	0
2	166617	31.51	0
2	167163	31.61	0
2	167709	31.71	0
2	168255	31.81	0
2	168801	31.91	0
2	169355	32.01	0
2	169901	32.11	0
2	170447	32.21	0
2	170993	32.31	0
2	171539	32.41	0
2	172085	32.51	0
2	172631	32.61	0
2	173177	32.71	0
2	173723	32.81	0
2	174269	32.91	0
2	174823	33.01	0
2	175369	33.11	0
2	175915	33.21	0
2	176461	33.31	0
2	177007	33.41	0
2	177553	33.51	0
2	178099	33.61	0
2	178645	33.71	0
2	179191	33.81	0
2	179737	33.91	0
2	180291	34.01	0
2	180837	34.11	0
2	181383	34.21	0
2	181929	34.31	0
2	182475	34.41	0
2	183021	34.51	0
2	183567	34.61	0
2	184113	34.71	0
2	184659	34.81	0
2	185205	34.91	0
2	185759	35.01	0
2	186305	35.11	0
2	186851	35.21	0
2	187397	35.31	0
2	187943	35.41	0
2	188489	35.51	0
2	189035	35.61	0
2	189581	35.71	0
2	190127	35.81	0
2	190673	35.91	0
2	191227	36.01	0
2	191773	36.11	0
2	192319	36.21	0
2	192865	36.31	0
2	193411	36.41	0
2	193957	36.51	0
2	194503	36.61	0
2	195049	36.71	0
2	195595	36.81	0
2	196141	36.91	0
2	196695	37.01	0
2	197241	37.11	0
2	197787	37.21	0
2	198333	37.31	0
2	198879	37.41	0
2	199425	37.51	0
2	199971	37.61	0
2	200517	37.71	0
2	201063	37.81	0
2	201609	37.91	0
2	202163	38.01	0
2	202709	38.11	0
2	203255	38.21	0
2	203801	38.31	0
2	204347	38.41	0
2	204893	38.51	0
2	205439	38.61	0
2	205985	38.71	0
2	206531	38.81	0
2	207077	38.91	0
2	207631	39.01	0
2	208177	39.11	0
2	208723	39.21	0
2	209269	39.31	0
2	209815	39.41	0
2	210361	39.51	0
2	210907	39.61	0
2	211453	39.71	0
2	211999	39.81	0
2	212545	39.91	0
2	213099	40.01	0
2	213645	40.11	0
2	214191	40.21	0
2	214737	40.31	0
2	215283	40.41	0
2	215829	40.51	0
2	216375	40.61	0
2	216921	40.71	0
2	217467	40.81	0
2	218013	40.91	0
2	218567	41.01	0
2	219113	41.11	0
2	219659	41.21	0
2	220205	41.31	0
2	220751	41.41	0
2	221297	41.51	0
2	221843	41.61	0
2	222389	41.71	0
2	222935	41.81	0
2	223481	41.91	0
2	224035	42.01	0
2	224581	42.11	0
2	225127	42.21	0
2	225673	42.31	0
2	226219	42.41	0
2	226765	42.51	0
2	227311	42.61	0
2	227857	42.71	0
2	228403	42.81	0
2	228949	42.91	0
2	229503	43.01	0
2	230049	43.11	0
2	230595	43.21	0
2	231141	43.31	0
2	231687	43.41	0
2	232233	43.51	0
2	232779	43.61	0
2	233325	43.71	0
2	233871	43.81	0
2	234417	43.91	0
2	234971	44.01	0
2	235517	44.11	0
2	236063	44.21	0
2	236609	44.31	0
2	237155	44.41	0
2	237701	44.51	0
2	238247	44.61	0
2	238793	44.71	0
2	239339	44.81	0
2	239885	44.91	0
2	240439	45.01	0
2	240985	45.11	0
2	241531	45.21	0
2	242077	45.31	0
2	242623	45.41	0
2	243169	45.51	0
2	243715	45.61	0
2	244261	45.71	0
2	244807	45.81	0
2	245353	45.91	0
2	245907	46.01	0
2	246453	46.11	0
2	246999	46.21	0
2	247545	46.31	0
2	248091	46.41	0
2	248637	46.51	0
2	249183	46.61	0
2	249729	46.71	0
2	250275	46.81	0
2	250821	46.91	0
2	251375	47.01	0
2	251921	47.11	0
2	252467	47.21	0
2	253013	47.31	0
2	253559	47.41	0
2	254105	47.51	0
2	254651	47.61	0
2	255197	47.71	0
2	255743	47.81	0
2	256289	47.91	0
2	256843	48.01	0
2	257389	48.11	0
2	257935	48.21	0
2	258481	48.31	0
2	259027	48.41	0
2	259573	48.51	0
2	260119	48.61	0
2	260665	48.71	0
2	261211	48.81	0
2	261757	48.91	0
2	262311	49.01	0
2	262857	49.11	0
2	263403	49.21	0
2	263949	49.31	0
2	264495	49.41	0
2	265041	49.51	0
2	265587	49.61	0
2	266133	49.71	0
2	266679	49.81	0
2	267225	49.91	0
2	267779	50.01	0
2	268325	50.11	0
2	268871	50.21	0
2	269417	50.31	0
2	269963	50.41	0
2	270509	50.51	0
2	271055	50.61	0
2	271601	50.71	0
2	272147	50.81	0
2	272693	50.91	0
2	273247	51.01	0
2	273793	51.11	0
2	274339	51.21	0
2	274885	51.31	0
2	275431	51.41	0
2	275977	51.51	0
2	276523	51.61	0
2	277069	51.71	0
2	277615	51.81	0
2	278161	51.91	0
2	278715	52.01	0
2	279261	52.11	0
2	279807	52.21	0
2	280353	52.31	0
2	280899	52.41	0
2	281445	52.51	0
2	281991	52.61	0
2	282537	52.71	0
2	283083	52.81	0
2	283629	52.91	0
2	284183	53.01	0
2	284729	53.11	0
2	285275	53.21	0
2	285821	53.31	0
2	286367	53.41	0
2	286913	53.51	0
2	287459	53.61	0
2	288005	53.71	0
2	288551	53.81	0
2	289097	53.91	0
2	289651	54.01	0
2	290197	54.11	0
2	290743	54.21	0
2	291289	54.31	0
2	291835	54.41	0
2	292381	54.51	0
2	292927	54.61	0
2	293473	54.71	0
2	294019	54.81	0
2	294565	54.91	0
2	295119	55.01	0
2	295665	55.11	0
2	296211	55.21	0
2	296757	55.31	0
2	297303	55.41	0
2	297849	55.51	0
2	298395	55.61	0
2	298941	55.71	0
2	299487	55.81	0
2	300033	55.91	0
2	300587	56.01	0
2	301133	56.11	0
2	301679	56.21	0
2	302225	56.31	0
2	302771	56.41	0
2	303317	56.51	0
2	303863	56.61	0
2	304409	56.71	0
2	304955	56.81	0
2	305501	56.91	0
2	306055	57.01	0
2	306601	57.11	0
2	307147	57.21	0
2	307693	57.31	0
2	308239	57.41	0
2	308785	57.51	0
2	309331	57.61	0
2	309877	57.71	0
2	310423	57.81	0
2	310969	57.91	0
2	311523	58.01	0
2	312069	58.11	0
2	312615	58.21	0
2	313161	58.31	0
2	313707	58.41	0
2	314253	58.51	0
2	314799	58.61	0
2	315345	58.71	0
2	315891	58.81	0
2	316437	58.91	0
2	316991	59.01	0
2	317537	59.11	0
2	318083	59.21	0
2	318629	59.31	0
2	319175	59.41	0
2	319721	59.51	0
2	320267	59.61	0
2	320813	59.71	0
2	321359	59.81	0
2	321905	59.91	0
2	322459	60.01	0
2	323005	60.11	0
2	323551	60.21	0
2	324097	60.31	0
2	324643	60.41	0
2	325189	60.51	0
2	325735	60.61	0
2	326281	60.71	0
2	326827	60.81	0
2	327373	60.91	0
2	327927	61.01	0
2	328473	61.11	0
2	329019	61.21	0
2	329565	61.31	0
2	330111	61.41	0
2	330657	61.51	0
2	332133	61.61	0
2	332679	61.71	0
2	333225	61.81	0
2	333771	61.91	0
2	334325	62.01	0
2	334872	62.11	0
2	335418	62.21	0
2	335964	62.31	0
2	336510	62.41	0
2	337056	62.51	0
2	337603	62.61	0
2	338149	62.71	0
2	338695	62.81	0
2	339241	62.91	0
2	339795	63.01	0
2	340342	63.11	0
2	340888	63.21	0
2	341434	63.31	0
2	341980	63.41	0
2	342526	63.51	0
2	343073	63.61	0
2	343619	63.71	0
2	344165	63.81	0
2	344711	63.91	0
2	345265	64.01	0
2	345812	64.11	0
2	346358	64.21	0
2	346904	64.31	0
2	347450	64.41	0
2	347996	64.51	0
2	348543	64.61	0
2	349089	64.71	0
2	349635	64.81	0
2	350181	64.91	0
2	350735	65.01	0
2	351282	65.11	0
2	351828	65.21	0
2	352374	65.31	0
2	352920	65.41	0
2	353466	65.51	0
2	354013	65.61	0
2	354559	65.71	0
2	355105	65.81	0
2	355651	65.91	0
2	356205	66.01	0
2	356752	66.11	0
2	357298	66.21	0
2	357844	66.31	0
2	358390	66.41	0
2	358936	66.51	0
2	359483	66.61	0
2	360029	66.71	0
2	360575	66.81	0
2	361121	66.91	0
2	361675	67.01	0
2	362222	67.11	0
2	362768	67.21	0
2	363314	67.31	0
2	363860	67.41	0
2	364406	67.51	0
2	364953	67.61	0
2	365499	67.71	0
2	366045	67.81	0
2	366591	67.91	0
2	367145	68.01	0
2	367692	68.11	0
2	368238	68.21	0
2	368784	68.31	0
2	369330	68.41	0
2	369876	68.51	0
2	370423	68.61	0
2	370969	68.71	0
2	371515	68.81	0
2	372061	68.91	0
2	372615	69.01	0
2	373162	69.11	0
2	373708	69.21	0
2	374254	69.31	0
2	374800	69.41	0
2	375346	69.51	0
2	375893	69.61	0
2	376439	69.71	0
2	376985	69.81	0
2	377531	69.91	0
2	378085	70.01	0
2	378632	70.11	0
2	379178	70.21	0
2	379724	70.31	0
2	380270	70.41	0
2	380816	70.51	0
2	381363	70.61	0
2	381909	70.71	0
2	382455	70.81	0
2	383001	70.91	0
2	383555	71.01	0
2	384102	71.11	0
2	384648	71.21	0
2	385194	71.31	0
2	385740	71.41	0
2	386286	71.51	0
2	387112	71.61	0
2	387658	71.71	0
2	388204	71.81	0
2	388750	71.91	0
2	389304	72.01	0
2	389850	72.11	0
2	390396	72.21	0
2	390942	72.31	0
2	391488	72.41	0
2	392034	72.51	0
2	392580	72.61	0
2	393126	72.71	0
2	393672	72.81	0
2	394218	72.91	0
2	394772	73.01	0
2	395318	73.11	0
2	395864	73.21	0
2	396410	73.31	0
2	396956	73.41	0
2	397502	73.51	0
2	398048	73.61	0
2	398594	73.71	0
2	399140	73.81	0
2	399686	73.91	0
2	400240	74.01	0
2	400786	74.11	0
2	401332	74.21	0
2	401878	74.31	0
2	402424	74.41	0
2	402970	74.51	0
2	403516	74.61	0
2	404062	74.71	0
2	404608	74.81	0
2	405154	74.91	0
2	405708	75.01	0
2	406254	75.11	0
2	406800	75.21	0
2	407346	75.31	0
2	407892	75.41	0
2	408438	75.51	0
2	408984	75.61	0
2	409530	75.71	0
2	410076	75.81	0
2	410622	75.91	0
2	411176	76.01	0
2	411722	76.11	0
2	412268	76.21	0
2	412814	76.31	0
2	413360	76.41	0
2	413906	76.51	0
2	414452	76.61	0
2	414998	76.71	0
2	415544	76.81	0
2	416090	76.91	0
2	416644	77.01	0
2	417190	77.11	0
2	417736	77.21	0
2	418282	77.31	0
2	418828	77.41	0
2	419374	77.51	0
2	419920	77.61	0
2	420466	77.71	0
2	421012	77.81	0
2	421558	77.91	0
2	422112	78.01	0
2	422658	78.11	0
2	423204	78.21	0
2	423750	78.31	0
2	424296	78.41	0
2	424842	78.51	0
2	425388	78.61	0
2	425934	78.71	0
2	426480	78.81	0
2	427026	78.91	0
2	427580	79.01	0
2	428126	79.11	0
2	428672	79.21	0
2	429218	79.31	0
2	429764	79.41	0
2	430310	79.51	0
2	430856	79.61	0
2	431402	79.71	0
2	431948	79.81	0
2	432494	79.91	0
2	433048	80.01	0
2	433594	80.11	0
2	434140	80.21	0
2	434686	80.31	0
2	435232	80.41	0
2	435778	80.51	0
2	436324	80.61	0
2	436870	80.71	0
2	437416	80.81	0
2	437962	80.91	0
2	438516	81.01	0
2	439062	81.11	0
2	439608	81.21	0
2	440154	81.31	0
2	440700	81.41	0
2	441246	81.51	0
2	441792	81.61	0
2	442338	81.71	0
2	442884	81.81	0
2	443430	81.91	0
2	443984	82.01	0
2	444530	82.11	0
2	445076	82.21	0
2	445622	82.31	0
2	446168	82.41	0
2	446714	82.51	0
2	447260	82.61	0
2	447806	82.71	0
2	448352	82.81	0
2	448898	82.91	0
2	449452	83.01	0
2	449998	83.11	0
2	450544	83.21	0
2	451090	83.31	0
2	451636	83.41	0
2	452182	83.51	0
2	452728	83.61	0
2	453274	83.71	0
2	453820	83.81	0
2	454366	83.91	0
2	454920	84.01	0
2	455466	84.11	0
2	456012	84.21	0
2	456558	84.31	0
2	457104	84.41	0
2	457650	84.51	0
2	458196	84.61	0
2	458742	84.71	0
2	459288	84.81	0
2	459834	84.91	0
2	460388	85.01	0
2	460934	85.11	0
2	461480	85.21	0
2	462026	85.31	0
2	462572	85.41	0
2	463118	85.51	0
2	463664	85.61	0
2	464210	85.71	0
2	464756	85.81	0
2	465302	85.91	0
2	465856	86.01	0
2	466402	86.11	0
2	466948	86.21	0
2	467494	86.31	0
2	468040	86.41	0
2	468586	86.51	0
2	469132	86.61	0
2	469678	86.71	0
2	470224	86.81	0
2	470770	86.91	0
2	471324	87.01	0
2	471870	87.11	0
2	472416	87.21	0
2	472962	87.31	0
2	473508	87.41	0
2	474054	87.51	0
2	474600	87.61	0
2	475146	87.71	0
2	475692	87.81	0
2	476238	87.91	0
2	476792	88.01	0
2	477338	88.11	0
2	477884	88.21	0
2	478430	88.31	0
2	478976	88.41	0
2	479522	88.51	0
2	480068	88.61	0
2	480614	88.71	0
2	481160	88.81	0
2	481706	88.91	0
2	482260	89.01	0
2	482806	89.11	0
2	483352	89.21	0
2	483898	89.31	0
2	484444	89.41	0
2	484990	89.51	0
2	485536	89.61	0
2	486082	89.71	0
2	486628	89.81	0
2	487174	89.91	0
2	487728	90.01	0
2	488274	90.11	0
2	488820	90.21	0
2	489366	90.31	0
2	489912	90.41	0
2	490458	90.51	0
2	491004	90.61	0
2	491550	90.71	0
2	492096	90.81	0
2	492642	90.91	0
2	493196	91.01	0
2	493742	91.11	0
2	494288	91.21	0
2	494834	91.31	0
2	495380	91.41	0
2	495926	91.51	0
2	496472	91.61	0
2	497018	91.71	0
2	497564	91.81	0
2	498110	91.91	0
2	498664	92.01	0
2	499210	92.11	0
2	499756	92.21	0
2	500302	92.31	0
2	500848	92.41	0
2	501394	92.51	0
2	501940	92.61	0
2	502486	92.71	0
2	503032	92.81	0
2	503578	92.91	0
2	504132	93.01	0
2	504678	93.11	0
2	505224	93.21	0
2	505770	93.31	0
2	506316	93.41	0
2	506862	93.51	0
2	507408	93.61	0
2	507954	93.71	0
2	508500	93.81	0
2	509046	93.91	0
2	509600	94.01	0
2	510146	94.11	0
2	510692	94.21	0
2	511238	94.31	0
2	511784	94.41	0
2	512330	94.51	0
2	512876	94.61	0
2	513422	94.71	0
2	513968	94.81	0
2	514514	94.91	0
2	515068	95.01	0
2	515614	95.11	0
2	516160	95.21	0
2	516706	95.31	0
2	517252	95.41	0
2	517798	95.51	0
2	518344	95.61	0
2	518890	95.71	0
2	519436	95.81	0
2	519982	95.91	0
2	520536	96.01	0
2	521082	96.11	0
2	521628	96.21	0
2	522174	96.31	0
2	522720	96.41	0
2	523266	96.51	0
2	523812	96.61	0
2	524358	96.71	0
2	524904	96.81	0
2	525450	96.91	0
2	526004	97.01	0
2	526550	97.11	0
2	527096	97.21	0
2	527642	97.31	0
2	528188	97.41	0
2	528734	97.51	0
2	529280	97.61	0
2	529826	97.71	0
2	530372	97.81	0
2	530918	97.91	0
2	531472	98.01	0
2	532018	98.11	0
2	532564	98.21	0
2	533110	98.31	0
2	533656	98.41	0
2	534202	98.51	0
2	534748	98.61	0
2	535294	98.71	0
2	535840	98.81	0
2	536386	98.91	0
2	536940	99.01	0
2	537486	99.11	0
2	538032	99.21	0
2	538578	99.31	0
2	539124	99.41	0
2	539670	99.51	0
2	540216	99.61	0
2	540762	99.71	0
2	541308	99.81	0
2	541854	99.91	0
2	542408	100.01	0
2	542954	100.11	0
2	543500	100.21	0
2	544046	100.31	0
2	544592	100.41	0
2	545138	100.51	0
2	545684	100.61	0
2	546230	100.71	0
2	546776	100.81	0
2	547322	100.91	0
2	547876	101.01	0
2	548422	101.11	0
2	548968	101.21	0
2	549514	101.31	0
2	550060	101.41	0
2	550606	101.51	0
2	551152	101.61	0
2	551698	101.71	0
2	552244	101.81	0
2	552790	101.91	0
2	553344	102.01	0
2	553890	102.11	0
2	554436	102.21	0
2	554982	102.31	0
2	555528	102.41	0
2	556074	102.51	0
2	556620	102.61	0
2	557166	102.71	0
2	557712	102.81	0
2	558258	102.91	0
2	558812	103.01	0
2	559358	103.11	0
2	559904	103.21	0
2	560450	103.31	0
2	560996	103.41	0
2	561542	103.51	0
2	562088	103.61	0
2	562634	103.71	0
2	563180	103.81	0
2	563726	103.91	0
2	564280	104.01	0
2	564826	104.11	0
2	565372	104.21	0
2	565918	104.31	0
2	566464	104.41	0
2	567010	104.51	0
2	567556	104.61	0
2	568102	104.71	0
2	568648	104.81	0
2	569194	104.91	0
2	569748	105.01	0
2	570294	105.11	0
2	570840	105.21	0
2	571386	105.31	0
2	571932	105.41	0
2	572478	105.51	0
2	573024	105.61	0
2	573570	105.71	0
2	574116	105.81	0
2	574662	105.91	0
2	575216	106.01	0
2	575762	106.11	0
2	576308	106.21	0
2	576854	106.31	0
2	577400	106.41	0
2	577946	106.51	0
2	578492	106.61	0
2	579038	106.71	0
2	579584	106.81	0
2	580130	106.91	0
2	580684	107.01	0
2	581230	107.11	0
2	581776	107.21	0
2	582322	107.31	0
2	582868	107.41	0
2	583414	107.51	0
2	583960	107.61	0
2	584506	107.71	0
2	585052	107.81	0
2	585598	107.91	0
2	586152	108.01	0
2	586698	108.11	0
2	587244	108.21	0
2	587790	108.31	0
2	588336	108.41	0
2	588882	108.51	0
2	589428	108.61	0
2	589974	108.71	0
2	590520	108.81	0
2	591066	108.91	0
2	591620	109.01	0
2	592166	109.11	0
2	592712	109.21	0
2	593258	109.31	0
2	593804	109.41	0
2	594350	109.51	0
2	594896	109.61	0
2	595442	109.71	0
2	595988	109.81	0
2	596534	109.91	0
2	597088	110.01	0
2	597634	110.11	0
2	598180	110.21	0
2	598726	110.31	0
2	599272	110.41	0
2	599818	110.51	0
2	600364	110.61	0
2	600910	110.71	0
2	601456	110.81	0
2	602002	110.91	0
2	602556	111.01	0
2	603102	111.11	0
2	603648	111.21	0
2	604194	111.31	0
2	604740	111.41	0
2	605286	111.51	0
2	605832	111.61	0
2	606378	111.71	0
2	606924	111.81	0
2	607470	111.91	0
2	608024	112.01	0
2	608570	112.11	0
2	609116	112.21	0
2	609662	112.31	0
2	610208	112.41	0
2	610754	112.51	0
2	611300	112.61	0
2	611846	112.71	0
2	612392	112.81	0
2	612938	112.91	0
2	613492	113.01	0
2	614038	113.11	0
2	614584	113.21	0
2	615130	113.31	0
2	615676	113.41	0
2	616222	113.51	0
2	616768	113.61	0
2	617314	113.71	0
2	617860	113.81	0
2	618406	113.91	0
2	618960	114.01	0
2	619506	114.11	0
2	620052	114.21	0
2	620598	114.31	0
2	621144	114.41	0
2	621690	114.51	0
2	622236	114.61	0
2	622782	114.71	0
2	623328	114.81	0
2	623874	114.91	0
2	624428	115.01	0
2	624974	115.11	0
2	625520	115.21	0
2	626066	115.31	0
2	626612	115.41	0
2	627158	115.51	0
2	627704	115.61	0
2	628250	115.71	0
2	628796	115.81	0
2	629342	115.91	0
2	629896	116.01	0
2	630442	116.11	0
2	630988	116.21	0
2	631534	116.31	0
2	632080	116.41	0
2	632626	116.51	0
2	633172	116.61	0
2	633718	116.71	0
2	634264	116.81	0
2	634810	116.91	0
2	635364	117.01	0
2	635910	117.11	0
2	636456	117.21	0
2	637002	117.31	0
2	637548	117.41	0
2	638094	117.51	0
2	638640	117.61	0
2	639186	117.71	0
2	639732	117.81	0
2	640278	117.91	0
2	640832	118.01	0
2	641378	118.11	0
2	641924	118.21	0
2	642470	118.31	0
2	643016	118.41	0
2	643562	118.51	0
2	644108	118.61	0
2	644654	118.71	0
2	645200	118.81	0
2	645746	118.91	0
2	646300	119.01	0
2	646846	119.11	0
2	647392	119.21	0
2	647938	119.31	0
2	648484	119.41	0
2	649030	119.51	0
2	649576	119.61	0
2	650122	119.71	0
2	650668	119.81	0
2	651214	119.91	0
3	113	1.11	-0.000358191
3	659	1.21	-0.000681704
3	1205	1.31	-0.00093487
3	1751	1.41	-0.00112579
3	2297	1.51	-0.00126221
3	2843	1.61	-0.00135149
3	3389	1.71	-0.00140049
3	3935	1.81	-0.00141557
3	4481	1.91	-0.00140255
3	5035	2.01	-0.00136671
3	5581	2.11	-0.0013128
3	6127	2.21	-0.00124502
3	6673	2.31	-0.0011671
3	7219	2.41	-0.00108223
3	7765	2.51	-0.000993208
3	8311	2.61	-0.000902362
3	8857	2.71	-0.000811651
3	9403	2.81	-0.000722679
3	9949	2.91	-0.000636729
3	10503	3.01	-0.0005548
3	11049	3.11	-0.000477639
3	11595	3.21	-0.000405773
3	12141	3.31	-0.00033954
3	12687	3.41	-0.000279116
3	13233	3.51	-0.000224541
3	13779	3.61	-0.000175743
3	14325	3.71	-0.00013256
3	14871	3.81	-9.47571e-05
3	15417	3.91	-6.2046e-05
3	15971	4.01	-3.40986e-05
3	16517	4.11	-1.05605e-05
3	17063	4.21	8.93844e-06
3	17609	4.31	2.4774e-05
3	18155	4.41	3.73203e-05
3	18701	4.51	4.69433e-05
3	19247	4.61	5.39956e-05
3	19793	4.71	5.88124e-05
3	20339	4.81	6.1709e-05
3	20885	4.91	6.29785e-05
3	21439	5.01	6.28903e-05
3	21985	5.11	6.169e-05
3	22531	5.21	5.95988e-05
3	23077	5.31	5.68144e-05
3	23623	5.41	5.35112e-05
3	24169	5.51	4.98416e-05
3	24715	5.61	4.59373e-05
3	25261	5.71	4.19105e-05
3	25807	5.81	3.78555e-05
3	26353	5.91	3.38499e-05
3	26907	6.01	2.99569e-05
3	27453	6.11	2.62259e-05
3	27999	6.21	2.26948e-05
3	28545	6.31	1.93911e-05
3	29091	6.41	1.6333e-05
3	29637	6.51	1.35314e-05
3	30183	6.61	1.09904e-05
3	30729	6.71	8.70882e-06
3	31275	6.81	6.6809e-06
3	31821	6.91	4.89747e-06
3	32375	7.01	3.3466e-06
3	32921	7.11	2.01432e-06
3	33467	7.21	8.85256e-07
3	34013	7.31	-5.68459e-08
3	34559	7.41	-8.28678e-07
3	35105	7.51	-1.44699e-06
3	35651	7.61	-1.92826e-06
3	36197	7.71	-2.28849e-06
3	36743	7.81	-2.54296e-06
3	37289	7.91	-2.7061e-06
3	37843	8.01	-2.79139e-06
3	38389	8.11	-2.8113e-06
3	38935	8.21	-2.77721e-06
3	39481	8.31	-2.69943e-06
3	40027	8.41	-2.58721e-06
3	40573	8.51	-2.44874e-06
3	41119	8.61	-2.29123e-06
3	41665	8.71	-2.12092e-06
3	42211	8.81	-1.94317e-06
3	42757	8.91	-1.7625e-06
3	43311	9.01	-1.58267e-06
3	43857	9.11	-1.40677e-06
3	44403	9.21	-1.23723e-06
3	44949	9.31	-1.07596e-06
3	45495	9.41	-9.24364e-07
3	46041	9.51	-7.83424e-07
3	46587	9.61	-6.53753e-07
3	47133	9.71	-5.35652e-07
3	47679	9.81	-4.2916e-07
3	48225	9.91	-3.34103e-07
3	48779	10.01	-2.5013e-07
3	49325	10.11	-1.76757e-07
3	49871	10.21	-1.13395e-07
3	50417	10.31	-5.93825e-08
3	50963	10.41	-1.40084e-08
3	51509	10.51	2.34657e-08
3	52055	10.61	5.3787e-08
3	52601	10.71	7.76954e-08
3	53147	10.81	9.59155e-08
3	53693	10.91	1.09142e-07
3	54248	11.01	1.18035e-07
3	55073	11.11	1.23212e-07
3	55619	11.21	1.2525e-07
3	56165	11.31	1.24675e-07
3	56711	11.41	1.21968e-07
3	57257	11.51	1.17559e-07
3	57803	11.61	1.11834e-07
3	58349	11.71	1.05132e-07
3	58895	11.81	9.77476e-08
3	59441	11.91	8.99373e-08
3	59995	12.01	8.19171e-08
3	60541	12.11	7.38677e-08
3	61087	12.21	6.59401e-08
3	61633	12.31	5.82538e-08
3	62179	12.41	5.09036e-08
3	62725	12.51	4.39606e-08
3	63271	12.61	3.74765e-08
3	63817	12.71	3.14852e-08
3	64363	12.81	2.60055e-08
3	64909	12.91	2.10438e-08
3	65463	13.01	1.65958e-08
3	66009	13.11	1.26498e-08
3	66555	13.21	9.18554e-09
3	67101	13.31	6.17888e-09
3	67647	13.41	3.60174e-09
3	68193	13.51	1.42322e-09
3	68739	13.61	-3.90088e-10
3	69285	13.71	-1.8705e-09
3	69831	13.81	-3.05107e-09
3	70377	13.91	-3.96518e-09
3	70931	14.01	-4.64375e-09
3	71477	14.11	-5.11768e-09
3	72023	14.21	-5.41434e-09
3	72569	14.31	-5.56071e-09
3	73115	14.41	-5.58096e-09
3	73661	14.51	-5.49747e-09
3	74207	14.61	-5.33085e-09
3	74753	14.71	-5.09743e-09
3	75299	14.81	-4.81464e-09
3	75845	14.91	-4.49667e-09
3	76399	15.01	-4.15525e-09
3	76945	15.11	-3.80034e-09
3	77491	15.21	-3.44151e-09
3	78037	15.31	-3.08518e-09
3	78583	15.41	-2.73772e-09
3	79129	15.51	-2.40306e-09
3	79675	15.61	-2.08544e-09
3	80221	15.71	-1.78773e-09
3	80767	15.81	-1.51132e-09
3	81313	15.91	-1.25766e-09
3	81867	16.01	-1.02673e-09
3	82413	16.11	-8.18901e-10
3	82959	16.21	-6.33804e-10
3	83505	16.31	-4.70735e-10
3	84051	16.41	-3.28271e-10
3	84597	16.51	-2.05702e-10
3	85143	16.61	-1.00897e-10
3	85689	16.71	-1.35003e-11
3	86235	16.81	5.82645e-11
3	86781	16.91	1.16174e-10
3	87335	17.01	1.61648e-10
3	87881	17.11	1.95755e-10
3	88427	17.21	2.20624e-10
3	88973	17.31	2.36966e-10
3	89519	17.41	2.45848e-10
3	90065	17.51	2.4869e-10
3	90611	17.61	2.46914e-10
3	91157	17.71	2.40874e-10
3	91703	17.81	2.31282e-10
3	92249	17.91	2.19913e-10
3	92803	18.01	2.05702e-10
3	93349	18.11	1.91491e-10
3	93895	18.21	1.7657e-10
3	94441	18.31	1.59872e-10
3	94987	18.41	1.44595e-10
3	95533	18.51	1.30385e-10
3	96079	18.61	1.16174e-10
3	96625	18.71	1.01963e-10
3	97171	18.81	8.7752e-11
3	97717	18.91	7.35412e-11
3	98271	19.01	6.21725e-11
3	98817	19.11	5.15143e-11
3	99363	19.21	4.08562e-11
3	99909	19.31	3.16192e-11
3	100455	19.41	2.45137e-11
3	101001	19.51	1.74083e-11
3	101547	19.61	1.03029e-11
3	102093	19.71	6.03961e-12
3	102639	19.81	2.4869e-12
3	103185	19.91	-1.06581e-12
3	103739	20.01	-4.61853e-12
3	104285	20.11	-8.17124e-12
3	104831	20.21	-8.88178e-12
3	105377	20.31	-8.88178e-12
3	105923	20.41	-8.88178e-12
3	106469	20.51	-8.88178e-12
3	107015	20.61	-8.88178e-12
3	107561	20.71	-8.88178e-12
3	108107	20.81	-8.88178e-12
3	108653	20.91	-8.88178e-12
3	109207	21.01	-8.88178e-12
3	109753	21.11	-8.88178e-12
3	110299	21.21	-8.88178e-12
3	110845	21.31	-8.88178e-12
3	111391	21.41	-8.88178e-12
3	111937	21.51	-8.88178e-12
3	112483	21.61	-8.88178e-12
3	113029	21.71	-8.88178e-12
3	113575	21.81	-8.88178e-12
3	114121	21.91	-8.88178e-12
3	114675	22.01	-8.88178e-12
3	115221	22.11	-8.88178e-12
3	115767	22.21	-8.17124e-12
3	116313	22.31	-7.4607e-12
3	116859	22.41	-6.75016e-12
3	117405	22.51	-6.03961e-12
3	117951	22.61	-5.68434e-12
3	118497	22.71	-4.9738e-12
3	119043	22.81	-4.61853e-12
3	119589	22.91	-4.26326e-12
3	120143	23.01	-3.55271e-12
3	120689	23.11	-3.19744e-12
3	121235	23.21	-3.19744e-12
3	121781	23.31	-2.84217e-12
3	122327	23.41	-2.4869e-12
3	122873	23.51	-2.13163e-12
3	123419	23.61	-2.13163e-12
3	123965	23.71	-1.77636e-12
3	124511	23.81	-1.77636e-12
3	125057	23.91	-1.42109e-12
3	125611	24.01	-1.42109e-12
3	126157	24.11	-1.06581e-12
3	126703	24.21	-1.06581e-12
3	127249	24.31	-1.06581e-12
3	127795	24.41	-1.06581e-12
3	128341	24.51	-7.10543e-13
3	128887	24.61	-7.10543e-13
3	129433	24.71	-7.10543e-13
3	129979	24.81	-7.10543e-13
3	130525	24.91	-7.10543e-13
3	131079	25.01	-3.55271e-13
3	131625	25.11	-3.55271e-13
3	132171	25.21	-3.55271e-13
3	132717	25.31	-3.55271e-13
3	133263	25.41	-3.55271e-13
3	133809	25.51	-3.55271e-13
3	134355	25.61	-3.55271e-13
3	134901	25.71	-3.55271e-13
3	135447	25.81	-3.55271e-13
3	135993	25.91	-3.55271e-13
3	136547	26.01	0
3	137093	26.11	0
3	137639	26.21	0
3	138185	26.31	0
3	138731	26.41	0
3	139277	26.51	0
3	139823	26.61	0
3	140369	26.71	0
3	140915	26.81	0
3	141461	26.91	0
3	142015	27.01	0
3	142561	27.11	0
3	143107	27.21	0
3	143653	27.31	0
3	144199	27.41	0
3	144745	27.51	0
3	145291	27.61	0
3	145837	27.71	0
3	146383	27.81	0
3	146929	27.91	0
[...]
114	613940	113.103542545428	0.100000840593
114	614486	113.203543386021	0.100000840593
114	615032	113.303544226614	0.100000840593
114	615578	113.403545067207	0.100000840593
114	616124	113.5035459078	0.100000840593
114	616670	113.603546748392	0.100000840592
114	617216	113.703547588984	0.100000840592
114	617762	113.803548429575	0.100000840591
114	618308	113.903536270166	0.099987840591
114	618862	114.003537110757	0.100000840591
114	619408	114.103537951348	0.100000840591
114	619954	114.203538791939	0.100000840591
114	620500	114.30353963253	0.100000840591
114	621046	114.403540473121	0.100000840591
114	621592	114.503541313712	0.100000840591
114	622138	114.603542154303	0.100000840591
114	622684	114.703542994894	0.100000840591
114	623230	114.803543835485	0.100000840591
114	623776	114.903544676076	0.100000840591
114	624330	115.003545516667	0.100000840591
114	624876	115.103546357258	0.100000840591
114	625422	115.203547197849	0.100000840591
114	625968	115.303548038439	0.10000084059
114	626514	115.403535879029	0.09998784059
114	627060	115.503536719618	0.100000840589
114	627606	115.603537560206	0.100000840588
114	628152	115.703538400794	0.100000840588
114	628698	115.803539241382	0.100000840588
114	629244	115.90354008197	0.100000840588
114	629798	116.003540922558	0.100000840588
114	630344	116.103541763146	0.100000840588
114	630890	116.203542603734	0.100000840588
114	631436	116.303543444322	0.100000840588
114	631982	116.403544284909	0.100000840587
114	632528	116.503545125496	0.100000840587
114	633074	116.603545966083	0.100000840587
114	633620	116.70354680667	0.100000840587
114	634166	116.803547647257	0.100000840587
114	634712	116.903548487844	0.100000840587
114	635266	117.003536328431	0.099987840587
114	635812	117.103537169018	0.100000840587
114	636358	117.203538009604	0.100000840586
114	636904	117.30353885019	0.100000840586
114	637450	117.403539690776	0.100000840586
114	637996	117.503540531362	0.100000840586
114	638542	117.603541371948	0.100000840586
114	639088	117.703542212534	0.100000840586
114	639634	117.80354305312	0.100000840586
114	640180	117.903543893706	0.100000840586
114	640734	118.003544734292	0.100000840586
114	641280	118.103545574878	0.100000840586
114	641826	118.203546415464	0.100000840586
114	642372	118.30354725605	0.100000840586
114	642918	118.403548096636	0.100000840586
114	643464	118.503535937222	0.099987840586
114	644010	118.603536777808	0.100000840586
114	644556	118.703537618394	0.100000840586
114	645102	118.80353845898	0.100000840586
114	645648	118.903539299566	0.100000840586
114	646202	119.003540140151	0.100000840585
114	646748	119.103540980736	0.100000840585
114	647294	119.203541821321	0.100000840585
114	647840	119.303542661906	0.100000840585
114	648386	119.403543502491	0.100000840585
114	648932	119.503544343075	0.100000840584
114	649478	119.603545183659	0.100000840584
114	650024	119.703546024243	0.100000840584
114	650570	119.803546864827	0.100000840584
114	651116	119.903547705411	0.100000840584
115	333133	61.803544604014	4
115	333679	61.903545663789	4
115	334233	62.003546722971	4
115	334779	62.103547781431	4
115	335326	62.20353583897	4
115	335872	62.303536895336	4
115	336418	62.403537950232	4
115	336964	62.503539003328	4
115	337510	62.603540054259	4
115	338057	62.703541102637	4
115	338603	62.803542148054	4
115	339149	62.903543190087	4
115	339703	63.0035442283	4
115	340249	63.103545262256	4
115	340796	63.203546291525	4
115	341336	63.303547315721	4
115	341882	63.40354833453	4
115	342428	63.503536347738	4
115	342974	63.603537355239	4
115	343521	63.703538357043	4
115	344067	63.803539353267	4
115	344613	63.903540344132	4
115	345167	64.003541329932	4
115	345713	64.103542311019	4
115	346260	64.203543287774	4
115	346806	64.303544260593	4
115	347352	64.403545229853	4
115	347898	64.503546195904	4
115	348444	64.603547159047	4
115	348991	64.703548119528	4
115	349537	64.803536077531	4
115	350083	64.903537033178	4
115	350637	65.003537986541	4
115	351183	65.103538937636	4
115	351730	65.203539886441	4
115	352276	65.303540832905	4
115	352822	65.403541776963	4
115	353368	65.503542718541	4
115	353914	65.603543657572	4
115	354461	65.703544594002	4
115	355007	65.803545527797	4
115	355553	65.903546458948	4
115	356107	66.003547387469	4
115	356653	66.103548313401	4
115	357200	66.203536236812	4
115	357746	66.303537157785	4
115	358292	66.403538076423	4
115	358838	66.503538992834	4
115	359384	66.603539907135	4
115	359931	66.703540819443	4
115	360477	66.803541729868	4
115	361023	66.903542638513	4
115	361577	67.003543545469	4
115	362123	67.103544450816	4
115	362670	67.203545354617	4
115	363216	67.303546256925	4
115	363762	67.403547157779	4
115	364308	67.503548057209	4
115	364854	67.603535955235	4
115	365401	67.703536851875	4
115	365947	67.803537747133	4
115	366493	67.903538641022	4
115	367047	68.003539533551	4
115	367593	68.103540424731	4
115	368140	68.203541314578	4
115	368686	68.303542203108	4
115	369232	68.40354309035	4
115	369778	68.503543976328	4
115	370324	68.603544861075	4
115	370871	68.703545744627	4
115	371417	68.803546627021	4
115	371963	68.903547508296	4
115	372517	69.003548388493	4
115	373063	69.103536267651	4
115	373610	69.203537145808	4
115	374156	69.303538022999	4
115	374702	69.403538899259	4
115	375248	69.503539774617	4
115	375794	69.603540649101	4
115	376341	69.703541522736	4
115	376887	69.803542395544	4
115	377433	69.903543267546	4
115	377987	70.003544138762	4
115	378533	70.103545009205	4
115	379080	70.203545878893	4
115	379626	70.303546747837	4
115	380172	70.403547616054	4
115	380718	70.503548483559	4
115	381264	70.603536350367	4
115	381811	70.703537216493	4
115	382357	70.803538081951	4
115	382903	70.90353894676	4
115	383457	71.003539810934	4
115	384003	71.10354067449	4
115	384550	71.203541537446	4
115	385096	71.303542399821	4
115	385642	71.403543261628	4
115	386188	71.503544122885	4
115	386734	71.603544983611	4
115	387560	71.703544144802	4
115	388106	71.803545004507	4
115	388652	71.903545863741	4
115	389206	72.003546722546	4
115	389752	72.10354758098	4
115	390298	72.203548439108	4
115	390844	72.30353629699	4
115	391390	72.403537154684	4
115	391936	72.503538012244	4
115	392482	72.603538869713	4
115	393028	72.703539727119	4
115	393574	72.803540584484	4
115	394120	72.903541441813	4
115	394674	73.003542299108	4
115	395220	73.103543156355	4
115	395766	73.203544013538	4
115	396312	73.303544870636	4
115	396858	73.403545727623	4
115	397404	73.503546584477	4
115	397950	73.603547441173	4
115	398496	73.703548297689	4
115	399042	73.80353615401	4
115	399588	73.903537010124	4
115	400142	74.003537866022	4
115	400688	74.103538721701	4
115	401234	74.203539577162	4
115	401780	74.303540432409	4
115	402326	74.403541287446	4
115	402872	74.503542142284	4
115	403418	74.603542996932	4
115	403964	74.703543851397	4
115	404510	74.803544705692	4
115	405056	74.903545559822	4
115	405610	75.003546413798	4
115	406156	75.103547267624	4
115	406702	75.203548121305	4
115	407248	75.30353597484	4
115	407794	75.403536828233	4
115	408340	75.503537681482	4
115	408886	75.60353853459	4
115	409432	75.703539387551	4
115	409978	75.803540240364	4
115	410524	75.903541093024	4
115	411078	76.003541945532	4
115	411624	76.103542797886	4
115	412170	76.203543650083	4
115	412716	76.303544502123	4
115	413262	76.403545354005	4
115	413808	76.503546205731	4
115	414354	76.603547057301	4
115	414900	76.703547908717	4
115	415446	76.803535759981	4
115	415992	76.903536611094	4
115	416546	77.003537462061	4
115	417092	77.103538312883	4
115	417638	77.203539163562	4
115	418184	77.303540014101	4
115	418730	77.403540864503	4
115	419276	77.503541714769	4
115	419822	77.603542564902	4
115	420368	77.703543414901	4
115	420914	77.803544264769	4
115	421460	77.903545114508	4
115	422014	78.00354596412	4
115	422560	78.103546813604	4
115	423106	78.203547662961	4
115	423652	78.30354851219	4
115	424198	78.403536361294	4
115	424744	78.503537210275	4
115	425290	78.603538059133	4
115	425836	78.703538907868	4
115	426382	78.803539756481	4
115	426928	78.903540604976	4
115	427482	79.003541453353	4
115	428028	79.10354230161	4
115	428574	79.203543149752	4
115	429120	79.30354399778	4
115	429666	79.403544845695	4
115	430212	79.503545693499	4
115	430758	79.603546541193	4
115	431304	79.70354738878	4
115	431850	79.803548236259	4
115	432396	79.903536083632	4
115	432950	80.003536930899	4
115	433496	80.103537778065	4
115	434042	80.20353862513	4
115	434588	80.303539472094	4
115	435134	80.40354031896	4
115	435680	80.503541165727	4
115	436226	80.603542012397	4
115	436772	80.703542858973	4
115	437318	80.803543705453	4
115	437864	80.903544551841	4
115	438418	81.003545398136	4
115	438964	81.10354624434	4
115	439510	81.203547090456	4
115	440056	81.303547936483	4
115	440602	81.403535782422	4
115	441148	81.503536628275	4
115	441694	81.603537474043	4
115	442240	81.703538319726	4
115	442786	81.803539165328	4
115	443332	81.90354001085	4
115	443886	82.003540856289	4
115	444432	82.10354170165	4
115	444978	82.203542546933	4
115	445524	82.303543392139	4
115	446070	82.403544237269	4
115	446616	82.503545082323	4
115	447162	82.603545927306	4
115	447708	82.703546772214	4
115	448254	82.803547617053	4
115	448800	82.903548461819	4
115	449354	83.003536306516	4
115	449900	83.103537151146	4
115	450446	83.203537995709	4
115	450992	83.303538840204	4
115	451538	83.403539684632	4
115	452084	83.503540528996	4
115	452630	83.603541373298	4
115	453176	83.703542217536	4
115	453722	83.803543061713	4
115	454268	83.903543905829	4
115	454822	84.003544749885	4
115	455368	84.103545593881	4
115	455914	84.20354643782	4
115	456460	84.303547281699	4
115	457006	84.403548125524	4
115	457552	84.503535969292	4
115	458098	84.603536813006	4
115	458644	84.703537656668	4
115	459190	84.803538500274	4
115	459736	84.903539343828	4
115	460290	85.00354018733	4
115	460836	85.103541030783	4
115	461382	85.203541874184	4
115	461928	85.303542717537	4
115	462474	85.403543560842	4
115	463020	85.5035444041	4
115	463566	85.603545247312	4
115	464112	85.703546090477	4
115	464658	85.803546933596	4
115	465204	85.903547776671	4
115	465758	86.003535619702	4
115	466304	86.103536462689	4
115	466850	86.203537305634	4
115	467396	86.303538148537	4
115	467942	86.4035389914	4
115	468488	86.503539834222	4
115	469034	86.603540677004	4
115	469580	86.703541519747	4
115	470126	86.803542362452	4
115	470672	86.903543205117	4
115	471226	87.003544047747	4
115	471772	87.10354489034	4
115	472318	87.203545732897	4
115	472864	87.303546575418	4
115	473410	87.403547417904	4
115	473956	87.503548260356	4
115	474502	87.603536102774	4
115	475048	87.703536945158	4
115	475594	87.80353778751	4
115	476140	87.903538629831	4
115	476694	88.003539472121	4
115	477240	88.103540314378	4
115	477786	88.203541156605	4
115	478332	88.303541998804	4
115	478878	88.403542840973	4
115	479424	88.503543683113	4
115	479970	88.603544525224	4
115	480516	88.703545367306	4
115	481062	88.803546209361	4
115	481608	88.903547051388	4
115	482162	89.00354789339	4
115	482708	89.103535735365	4
115	483254	89.203536577315	4
115	483800	89.30353741924	4
115	484346	89.403538261139	4
115	484892	89.503539103013	4
115	485438	89.603539944865	4
115	485984	89.703540786694	4
115	486530	89.8035416285	4
115	487076	89.903542470283	4
115	487630	90.003543312044	4
115	488176	90.103544153782	4
115	488722	90.203544995499	4
115	489268	90.303545837193	4
115	489814	90.403546678868	4
115	490360	90.503547520522	4
115	490906	90.603548362154	4
115	491452	90.703536203769	4
115	491998	90.803537045364	4
115	492544	90.90353788694	4
115	493098	91.003538728498	4
115	493644	91.103539570038	4
115	494190	91.203540411558	4
115	494736	91.303541253062	4
115	495282	91.403542094547	4
115	495828	91.503542936016	4
115	496374	91.603543777467	4
115	496920	91.703544618902	4
115	497466	91.803545460324	4
115	498012	91.903546301727	4
115	498566	92.003547143115	4
115	499112	92.103547984487	4
115	499658	92.203535825844	4
115	500204	92.303536667187	4
115	500750	92.403537508515	4
115	501296	92.503538349829	4
115	501842	92.60353919113	4
115	502388	92.703540032417	4
115	502934	92.803540873687	4
115	503480	92.903541714946	4
115	504034	93.003542556193	4
115	504580	93.103543397426	4
115	505126	93.203544238647	4
115	505672	93.303545079856	4
115	506218	93.403545921054	4
115	506764	93.503546762239	4
115	507310	93.603547603413	4
115	507856	93.703548444575	4
115	508402	93.803536285725	4
115	508948	93.903537126863	4
115	509502	94.003537967993	4
115	510048	94.103538809111	4
115	510594	94.20353965022	4
115	511140	94.303540491318	4
115	511686	94.403541332405	4
115	512232	94.503542173483	4
115	512778	94.603543014552	4
115	513324	94.703543855612	4
115	513870	94.803544696661	4
115	514416	94.903545537701	4
115	514970	95.003546378733	4
115	515516	95.103547219755	4
115	516062	95.203548060771	4
115	516608	95.303535901776	4
115	517154	95.403536742773	4
115	517700	95.503537583761	4
115	518246	95.603538424742	4
115	518792	95.703539265715	4
115	519338	95.80354010668	4
115	519884	95.903540947638	4
115	520438	96.003541788588	4
115	520984	96.103542629532	4
115	521530	96.203543470466	4
115	522076	96.303544311395	4
115	522622	96.403545152317	4
115	523168	96.503545993232	4
115	523714	96.60354683414	4
115	524260	96.703547675042	4
115	524806	96.803548515939	4
115	525352	96.903536356829	4
115	525906	97.003537197713	4
115	526452	97.10353803859	4
115	526998	97.203538879461	4
115	527544	97.303539720327	4
115	528090	97.403540561188	4
115	528636	97.503541402043	4
115	529182	97.603542242892	4
115	529728	97.703543083737	4
115	530274	97.803543924575	4
115	530820	97.90354476541	4
115	531374	98.003545606239	4
115	531920	98.103546447063	4
115	532466	98.203547287882	4
115	533012	98.303548128696	4
115	533558	98.403535969504	4
115	534104	98.503536810309	4
115	534650	98.60353765111	4
115	535196	98.703538491906	4
115	535742	98.803539332697	4
115	536288	98.903540173485	4
115	536842	99.003541014268	4
115	537388	99.103541855047	4
115	537934	99.203542695822	4
115	538480	99.303543536594	4
115	539026	99.403544377363	4
115	539572	99.503545218128	4
115	540118	99.603546058889	4
115	540664	99.703546899646	4
115	541210	99.8035477404	4
115	541756	99.90353558115	4
115	542310	100.003536421895	4
115	542856	100.103537262636	4
115	543402	100.203538103375	4
115	543948	100.303538944111	4
115	544494	100.403539784845	4
115	545040	100.503540625576	4
115	545586	100.603541466303	4
115	546132	100.703542307026	4
115	546678	100.803543147747	4
115	547224	100.903543988466	4
115	547778	101.003544829181	4
115	548324	101.103545669895	4
115	548870	101.203546510605	4
115	549416	101.303547351313	4
115	549962	101.403548192018	4
115	550508	101.50353603272	4
115	551054	101.60353687342	4
115	551600	101.703537714119	4
115	552146	101.803538554815	4
115	552692	101.903539395509	4
115	553246	102.003540236201	4
115	553792	102.103541076889	4
115	554338	102.203541917575	4
115	554884	102.30354275826	4
115	555430	102.403543598942	4
115	555976	102.503544439623	4
115	556522	102.603545280302	4
115	557068	102.703546120978	4
115	557614	102.803546961652	4
115	558160	102.903547802324	4
115	558714	103.003535642995	4
115	559260	103.103536483663	4
115	559806	103.203537324329	4
115	560352	103.303538164993	4
115	560898	103.403539005656	4
115	561444	103.503539846317	4
115	561990	103.603540686976	4
115	562536	103.703541527634	4
115	563082	103.803542368291	4
115	563628	103.903543208945	4
115	564182	104.003544049597	4
115	564728	104.103544890248	4
115	565274	104.203545730898	4
115	565820	104.303546571546	4
115	566366	104.403547412193	4
115	566912	104.503548252838	4
115	567458	104.603536093482	4
115	568004	104.703536934125	4
115	568550	104.803537774767	4
115	569096	104.903538615408	4
115	569650	105.003539456048	4
115	570196	105.103540296686	4
115	570742	105.203541137323	4
115	571288	105.30354197796	4
115	571834	105.403542818596	4
115	572380	105.503543659231	4
115	572926	105.603544499864	4
115	573472	105.703545340496	4
115	574018	105.803546181126	4
115	574564	105.903547021756	4
115	575118	106.003547862385	4
115	575664	106.103535703013	4
115	576210	106.20353654364	4
115	576756	106.303537384267	4
115	577302	106.403538224892	4
115	577848	106.503539065516	4
115	578394	106.603539906139	4
115	578940	106.703540746761	4
115	579486	106.803541587383	4
115	580032	106.903542428004	4
115	580586	107.003543268625	4
115	581132	107.103544109245	4
115	581678	107.203544949865	4
115	582224	107.303545790483	4
115	582770	107.403546631101	4
115	583316	107.503547471717	4
115	583862	107.603548312333	4
115	584408	107.703536152948	4
115	584954	107.803536993563	4
115	585500	107.903537834178	4
115	586054	108.003538674792	4
115	586600	108.103539515406	4
115	587146	108.203540356019	4
115	587692	108.303541196631	4
115	588238	108.403542037242	4
115	588784	108.503542877852	4
115	589330	108.60354371846	4
115	589876	108.703544559068	4
115	590422	108.803545399676	4
115	590968	108.903546240284	4
115	591522	109.003547080892	4
115	592068	109.103547921499	4
115	592614	109.203535762105	4
115	593160	109.303536602711	4
115	593706	109.403537443316	4
115	594252	109.503538283921	4
115	594798	109.603539124525	4
115	595344	109.703539965128	4
115	595890	109.80354080573	4
115	596436	109.903541646331	4
115	596990	110.003542486932	4
115	597536	110.103543327533	4
115	598082	110.203544168134	4
115	598628	110.303545008735	4
115	599174	110.403545849335	4
115	599720	110.503546689935	4
115	600266	110.603547530534	4
115	600812	110.703548371133	4
115	601358	110.803536211732	4
115	601904	110.903537052331	4
115	602458	111.00353789293	4
115	603004	111.103538733529	4
115	603550	111.203539574127	4
115	604096	111.303540414725	4
115	604642	111.403541255321	4
115	605188	111.503542095917	4
115	605734	111.603542936513	4
115	606280	111.703543777109	4
115	606826	111.803544617705	4
115	607372	111.903545458301	4
115	607926	112.003546298897	4
115	608472	112.103547139493	4
115	609018	112.203547980089	4
115	609564	112.303535820683	4
115	610110	112.403536661277	4
115	610656	112.50353750187	4
115	611202	112.603538342463	4
115	611748	112.703539183056	4
115	612294	112.803540023649	4
115	612840	112.903540864242	4
115	613394	113.003541704835	4
115	613940	113.103542545428	4
115	614486	113.203543386021	4
115	615032	113.303544226614	4
115	615578	113.403545067207	4
115	616124	113.5035459078	4
115	616670	113.603546748392	4
115	617216	113.703547588984	4
115	617762	113.803548429575	4
115	618308	113.903536270166	4
115	618862	114.003537110757	4
115	619408	114.103537951348	4
115	619954	114.203538791939	4
115	620500	114.30353963253	4
115	621046	114.403540473121	4
115	621592	114.503541313712	4
115	622138	114.603542154303	4
115	622684	114.703542994894	4
115	623230	114.803543835485	4
115	623776	114.903544676076	4
115	624330	115.003545516667	4
115	624876	115.103546357258	4
115	625422	115.203547197849	4
115	625968	115.303548038439	4
115	626514	115.403535879029	4
115	627060	115.503536719618	4
115	627606	115.603537560206	4
115	628152	115.703538400794	4
115	628698	115.803539241382	4
115	629244	115.90354008197	4
115	629798	116.003540922558	4
115	630344	116.103541763146	4
115	630890	116.203542603734	4
115	631436	116.303543444322	4
115	631982	116.403544284909	4
115	632528	116.503545125496	4
115	633074	116.603545966083	4
115	633620	116.70354680667	4
115	634166	116.803547647257	4
115	634712	116.903548487844	4
115	635266	117.003536328431	4
115	635812	117.103537169018	4
115	636358	117.203538009604	4
115	636904	117.30353885019	4
115	637450	117.403539690776	4
115	637996	117.503540531362	4
115	638542	117.603541371948	4
115	639088	117.703542212534	4
115	639634	117.80354305312	4
115	640180	117.903543893706	4
115	640734	118.003544734292	4
115	641280	118.103545574878	4
115	641826	118.203546415464	4
115	642372	118.30354725605	4
115	642918	118.403548096636	4
115	643464	118.503535937222	4
115	644010	118.603536777808	4
115	644556	118.703537618394	4
115	645102	118.80353845898	4
115	645648	118.903539299566	4
115	646202	119.003540140151	4
115	646748	119.103540980736	4
115	647294	119.203541821321	4
115	647840	119.303542661906	4
115	648386	119.403543502491	4
115	648932	119.503544343075	4
115	649478	119.603545183659	4
115	650024	119.703546024243	4
115	650570	119.803546864827	4
115	651116	119.903547705411	4

