version 3
run MergeManeuverNoGui-0-20240816-19:46:55-11132
attr configname MergeManeuverNoGui
attr datetime 20240816-19:46:55
attr datetimef 20240816-194655
attr experiment MergeManeuverNoGui
attr inifile omnetpp.ini
attr iterationvars "$nCars=4, $platoonSize=4, $nLanes=1, $caccXi=1, $caccOmegaN=0.2, $ploegH=0.5, $leaderHeadway=1.2, $leaderSpeed=100, $beaconInterval=0.1, $priority=2, $packetSize=200"
attr iterationvarsd nCars=4/platoonSize=4/nLanes=1/caccXi=1/caccOmegaN=0.2/ploegH=0.5/leaderHeadway=1.2/leaderSpeed=100/beaconInterval=0.1/priority=2/packetSize=200
attr iterationvarsf nCars=4,platoonSize=4,nLanes=1,caccXi=1,caccOmegaN=0.2,ploegH=0.5,leaderHeadway=1.2,leaderSpeed=100,beaconInterval=0.1,priority=2,packetSize=200-
attr measurement "$nCars=4, $platoonSize=4, $nLanes=1, $caccXi=1, $caccOmegaN=0.2, $ploegH=0.5, $leaderHeadway=1.2, $leaderSpeed=100, $beaconInterval=0.1, $priority=2, $packetSize=200"
attr network JoinManeuver
attr processid 11132
attr repetition 0
attr replication #0
attr resultdir results
attr runnumber 0
attr seedset 0
itervar beaconInterval 0.1
itervar caccOmegaN 0.2
itervar caccXi 1
itervar leaderHeadway 1.2
itervar leaderSpeed 100
itervar nCars 4
itervar nLanes 1
itervar packetSize 200
itervar platoonSize 4
itervar ploegH 0.5
itervar priority 2
config image-path ../../../veins/images
config extends MergeManeuver
config *.manager.command "\"sumo\""
config *.manager.ignoreGuiCommands true
config output-vector-file results/MergeManeuver_1_0.2_0.vec
config output-scalar-file results/MergeManeuver_1_0.2_0.sca
config repeat 1
config **.traffic_type "\"PlatoonsTrafficManager\""
config **.traffic.nCars 8
config **.traffic.platoonSize 4
config **.traffic.nLanes 1
config **.traffic.platoonAdditionalDistance 300m
config *.node[*].scenario_type "\"MergeManeuverScenario\""
config *.manager.command "\"sumo-gui\""
config *.manager.ignoreGuiCommands false
config output-vector-file results/MergeManeuverNoGui_1_0.2_0.vec
config output-scalar-file results/MergeManeuverNoGui_1_0.2_0.sca
config cmdenv-express-mode true
config cmdenv-autoflush true
config cmdenv-status-frequency 10s
config num-rngs 6
config network JoinManeuver
config debug-on-errors true
config print-undisposed true
config *.playgroundSizeX 65000m
config *.playgroundSizeY 25000m
config *.playgroundSizeZ 50m
config sim-time-limit "120 s"
config *.annotations.draw false
config *.obstacles.debug false
config *.world.useTorus false
config *.world.use2D false
config *.manager.updateInterval 0.01s
config *.manager.host "\"localhost\""
config *.manager.moduleType "\"org.car2x.plexe.PlatoonCar\""
config *.manager.moduleName "\"node\""
config *.manager.moduleDisplayString "\"\""
config *.manager.autoShutdown true
config *.manager.margin 25
config *.connectionManager.sendDirect true
config *.connectionManager.maxInterfDist 2600m
config *.connectionManager.drawMaxIntfDist false
config *.**.nic.mac1609_4.useServiceChannel false
config *.**.nic.mac1609_4.txPower 100mW
config *.**.nic.mac1609_4.bitrate 6Mbps
config *.**.nic.mac1609_4.useAcks true
config *.**.nic.mac1609_4.ackErrorRate 0.0
config *.**.nic.mac1609_4.frameErrorRate 0.0
config *.**.nic.phy80211p.minPowerLevel -94dBm
config *.**.nic.phy80211p.maxTXPower 100mW
config *.**.nic.phy80211p.useNoiseFloor true
config *.**.nic.phy80211p.noiseFloor -95dBm
config *.**.nic.phy80211p.decider "xmldoc(\"config.xml\")"
config *.**.nic.phy80211p.analogueModels "xmldoc(\"config.xml\")"
config *.**.nic.phy80211p.usePropagationDelay true
config *.node[*].mobility.x 0
config *.node[*].mobility.y 0
config *.node[*].mobility.z 1.895
config seed-set 0
config **.seed 0
config *.node[*].prot.rng-0 2
config *.node[*].appl.rng-0 3
config *.node[*].scenario.rng-0 4
config **.traffic.rng-0 5
config *.manager.configFile "\"./sumocfg/freeway.sumo.cfg\""
config *.manager.launchConfig "xmldoc(\"./sumocfg/freeway.launchd.xml\")"
config **.numberOfCars 4
config **.numberOfCarsPerPlatoon 4
config **.numberOfLanes 1
config **.controllerXi 1
config **.controllerOmegaN 0.2
config *.node[*].helper_type "\"PositionHelper\""
config *.node[*].scenario.caccC1 0.5
config *.node[*].scenario.caccXi 1
config *.node[*].scenario.caccOmegaN "0.2 Hz"
config *.node[*].scenario.caccSpacing "5 m"
config *.node[*].scenario.engineTau "0.5 s"
config *.node[*].scenario.ploegH 0.5s
config *.node[*].scenario.ploegKp 0.2
config *.node[*].scenario.ploegKd 0.7
config *.node[*].scenario.useRealisticEngine false
config *.node[*].scenario.targetController "\"CACC\""
config **.numericController 0
config *.node[*].scenario.accHeadway "0.1 s"
config *.node[*].scenario.leaderHeadway 1.2s
config *.node[*].scenario.leaderSpeed 100kmph
config *.node[*].appl_type "\"GeneralPlatooningApp\""
config *.node[*].appl.*.scalar-recording true
config *.node[*].appl.*.vector-recording true
config *.node[*].appl.joinManeuver "\"JoinAtBack\""
config *.node[*].appl.mergeManeuver "\"MergeAtBack\""
config *.node[*].protocol_type "\"SimplePlatooningBeaconing\""
config *.node[*].prot.*.scalar-recording true
config *.node[*].prot.*.vector-recording true
config *.node[*].prot.beaconingInterval 0.1s
config *.node[*].prot.priority 2
config *.node[*].prot.packetSize 200
config **.traffic_type "\"JoinTrafficManager\""
config **.traffic.platoonInsertTime "1 s"
config **.traffic.platoonInsertSpeed 100kmph
config **.traffic.nCars 4
config **.traffic.platoonSize 4
config **.traffic.nLanes 1
config **.traffic.platooningVType "\"vtypeauto\""
config **.traffic.controller "\"CACC\""
config **.traffic.platoonInsertDistance "5 m"
config **.traffic.platoonInsertHeadway "0 s"
config **.traffic.platoonLeaderHeadway 1.2s
config **.scalar-recording false
config **.vector-recording false

vector 0 JoinManeuver.node[0].appl distance ETV
vector 1 JoinManeuver.node[0].appl relativeSpeed ETV
vector 2 JoinManeuver.node[0].appl nodeId ETV
vector 3 JoinManeuver.node[0].appl acceleration ETV
vector 4 JoinManeuver.node[0].appl controllerAcceleration ETV
vector 5 JoinManeuver.node[0].appl speed ETV
vector 6 JoinManeuver.node[0].appl posx ETV
vector 7 JoinManeuver.node[0].appl posy ETV
vector 8 JoinManeuver.node[1].appl distance ETV
vector 9 JoinManeuver.node[1].appl relativeSpeed ETV
vector 10 JoinManeuver.node[1].appl nodeId ETV
vector 11 JoinManeuver.node[1].appl acceleration ETV
vector 12 JoinManeuver.node[1].appl controllerAcceleration ETV
vector 13 JoinManeuver.node[1].appl speed ETV
vector 14 JoinManeuver.node[1].appl posx ETV
vector 15 JoinManeuver.node[1].appl posy ETV
vector 16 JoinManeuver.node[2].appl distance ETV
vector 17 JoinManeuver.node[2].appl relativeSpeed ETV
vector 18 JoinManeuver.node[2].appl nodeId ETV
vector 19 JoinManeuver.node[2].appl acceleration ETV
vector 20 JoinManeuver.node[2].appl controllerAcceleration ETV
vector 21 JoinManeuver.node[2].appl speed ETV
vector 22 JoinManeuver.node[2].appl posx ETV
vector 23 JoinManeuver.node[2].appl posy ETV
vector 24 JoinManeuver.node[3].appl distance ETV
vector 25 JoinManeuver.node[3].appl relativeSpeed ETV
vector 26 JoinManeuver.node[3].appl nodeId ETV
vector 27 JoinManeuver.node[3].appl acceleration ETV
vector 28 JoinManeuver.node[3].appl controllerAcceleration ETV
vector 29 JoinManeuver.node[3].appl speed ETV
vector 30 JoinManeuver.node[3].appl posx ETV
vector 31 JoinManeuver.node[3].appl posy ETV
vector 32 JoinManeuver.node[4].appl distance ETV
vector 33 JoinManeuver.node[4].appl relativeSpeed ETV
vector 34 JoinManeuver.node[4].appl nodeId ETV
vector 35 JoinManeuver.node[4].appl acceleration ETV
vector 36 JoinManeuver.node[4].appl controllerAcceleration ETV
vector 37 JoinManeuver.node[4].appl speed ETV
vector 38 JoinManeuver.node[4].appl posx ETV
vector 39 JoinManeuver.node[4].appl posy ETV
vector 40 JoinManeuver.node[5].appl distance ETV
vector 41 JoinManeuver.node[5].appl relativeSpeed ETV
vector 42 JoinManeuver.node[5].appl nodeId ETV
vector 43 JoinManeuver.node[5].appl acceleration ETV
vector 44 JoinManeuver.node[5].appl controllerAcceleration ETV
vector 45 JoinManeuver.node[5].appl speed ETV
vector 46 JoinManeuver.node[5].appl posx ETV
vector 47 JoinManeuver.node[5].appl posy ETV
vector 48 JoinManeuver.node[6].appl distance ETV
vector 49 JoinManeuver.node[6].appl relativeSpeed ETV
vector 50 JoinManeuver.node[6].appl nodeId ETV
vector 51 JoinManeuver.node[6].appl acceleration ETV
vector 52 JoinManeuver.node[6].appl controllerAcceleration ETV
vector 53 JoinManeuver.node[6].appl speed ETV
vector 54 JoinManeuver.node[6].appl posx ETV
vector 55 JoinManeuver.node[6].appl posy ETV
vector 56 JoinManeuver.node[7].appl distance ETV
vector 57 JoinManeuver.node[7].appl relativeSpeed ETV
vector 58 JoinManeuver.node[7].appl nodeId ETV
vector 59 JoinManeuver.node[7].appl acceleration ETV
vector 60 JoinManeuver.node[7].appl controllerAcceleration ETV
vector 61 JoinManeuver.node[7].appl speed ETV
vector 62 JoinManeuver.node[7].appl posx ETV
vector 63 JoinManeuver.node[7].appl posy ETV
vector 64 JoinManeuver.node[3].prot frontDelay ETV
vector 65 JoinManeuver.node[3].prot frontDelayId ETV
vector 66 JoinManeuver.node[2].prot frontDelay ETV
vector 67 JoinManeuver.node[2].prot frontDelayId ETV
vector 68 JoinManeuver.node[7].prot frontDelay ETV
vector 69 JoinManeuver.node[7].prot frontDelayId ETV
vector 70 JoinManeuver.node[1].prot leaderDelay ETV
vector 71 JoinManeuver.node[1].prot leaderDelayId ETV
vector 72 JoinManeuver.node[1].prot frontDelay ETV
vector 73 JoinManeuver.node[1].prot frontDelayId ETV
vector 74 JoinManeuver.node[2].prot leaderDelay ETV
vector 75 JoinManeuver.node[2].prot leaderDelayId ETV
vector 76 JoinManeuver.node[3].prot leaderDelay ETV
vector 77 JoinManeuver.node[3].prot leaderDelayId ETV
vector 78 JoinManeuver.node[5].prot leaderDelay ETV
vector 79 JoinManeuver.node[5].prot leaderDelayId ETV
vector 80 JoinManeuver.node[5].prot frontDelay ETV
vector 81 JoinManeuver.node[5].prot frontDelayId ETV
vector 82 JoinManeuver.node[6].prot leaderDelay ETV
vector 83 JoinManeuver.node[6].prot leaderDelayId ETV
vector 84 JoinManeuver.node[7].prot leaderDelay ETV
vector 85 JoinManeuver.node[7].prot leaderDelayId ETV
vector 86 JoinManeuver.node[6].prot frontDelay ETV
vector 87 JoinManeuver.node[6].prot frontDelayId ETV
vector 88 JoinManeuver.node[0].prot nodeId ETV
vector 89 JoinManeuver.node[0].prot busyTime ETV
vector 90 JoinManeuver.node[0].prot collisions ETV
vector 91 JoinManeuver.node[1].prot nodeId ETV
vector 92 JoinManeuver.node[1].prot busyTime ETV
vector 93 JoinManeuver.node[1].prot collisions ETV
vector 94 JoinManeuver.node[2].prot nodeId ETV
vector 95 JoinManeuver.node[2].prot busyTime ETV
vector 96 JoinManeuver.node[2].prot collisions ETV
vector 97 JoinManeuver.node[3].prot nodeId ETV
vector 98 JoinManeuver.node[3].prot busyTime ETV
vector 99 JoinManeuver.node[3].prot collisions ETV
vector 100 JoinManeuver.node[4].prot nodeId ETV
vector 101 JoinManeuver.node[4].prot busyTime ETV
vector 102 JoinManeuver.node[4].prot collisions ETV
vector 103 JoinManeuver.node[5].prot nodeId ETV
vector 104 JoinManeuver.node[5].prot busyTime ETV
vector 105 JoinManeuver.node[5].prot collisions ETV
vector 106 JoinManeuver.node[6].prot nodeId ETV
vector 107 JoinManeuver.node[6].prot busyTime ETV
vector 108 JoinManeuver.node[6].prot collisions ETV
vector 109 JoinManeuver.node[7].prot nodeId ETV
vector 110 JoinManeuver.node[7].prot busyTime ETV
vector 111 JoinManeuver.node[7].prot collisions ETV
vector 112 JoinManeuver.node[4].prot leaderDelay ETV
vector 113 JoinManeuver.node[4].prot leaderDelayId ETV
vector 114 JoinManeuver.node[4].prot frontDelay ETV
vector 115 JoinManeuver.node[4].prot frontDelayId ETV
0	113	1.11	-1
0	659	1.21	-1
0	1205	1.31	-1
0	1751	1.41	-1
0	2297	1.51	-1
0	2843	1.61	-1
0	3389	1.71	-1
0	3935	1.81	-1
0	4481	1.91	-1
0	5035	2.01	-1
0	5581	2.11	-1
0	6127	2.21	-1
0	6673	2.31	-1
0	7219	2.41	-1
0	7765	2.51	-1
0	8311	2.61	-1
0	8857	2.71	-1
0	9403	2.81	-1
0	9949	2.91	-1
0	10503	3.01	-1
0	11049	3.11	-1
0	11595	3.21	-1
0	12141	3.31	-1
0	12687	3.41	-1
0	13233	3.51	-1
0	13779	3.61	-1
0	14325	3.71	-1
0	14871	3.81	-1
0	15417	3.91	-1
0	15971	4.01	-1
0	16517	4.11	-1
0	17063	4.21	-1
0	17609	4.31	-1
0	18155	4.41	-1
0	18701	4.51	-1
0	19247	4.61	-1
0	19793	4.71	-1
0	20339	4.81	-1
0	20885	4.91	-1
0	21439	5.01	-1
0	21985	5.11	-1
0	22531	5.21	-1
0	23077	5.31	-1
0	23623	5.41	-1
0	24169	5.51	-1
0	24715	5.61	-1
0	25261	5.71	-1
0	25807	5.81	-1
0	26353	5.91	-1
0	26907	6.01	-1
0	27453	6.11	-1
0	27999	6.21	-1
0	28545	6.31	-1
0	29091	6.41	-1
0	29637	6.51	-1
0	30183	6.61	-1
0	30729	6.71	-1
0	31275	6.81	-1
0	31821	6.91	-1
0	32375	7.01	-1
0	32921	7.11	-1
0	33467	7.21	-1
0	34013	7.31	-1
0	34559	7.41	-1
0	35105	7.51	-1
0	35651	7.61	-1
0	36197	7.71	-1
0	36743	7.81	-1
0	37289	7.91	-1
0	37843	8.01	-1
0	38389	8.11	-1
0	38935	8.21	-1
0	39481	8.31	-1
0	40027	8.41	-1
0	40573	8.51	-1
0	41119	8.61	-1
0	41665	8.71	-1
0	42211	8.81	-1
0	42757	8.91	-1
0	43311	9.01	-1
0	43857	9.11	-1
0	44403	9.21	-1
0	44949	9.31	-1
0	45495	9.41	-1
0	46041	9.51	-1
0	46587	9.61	-1
0	47133	9.71	-1
0	47679	9.81	-1
0	48225	9.91	-1
0	48779	10.01	-1
0	49325	10.11	-1
0	49871	10.21	-1
0	50417	10.31	-1
0	50963	10.41	-1
0	51509	10.51	-1
0	52055	10.61	-1
0	52601	10.71	-1
0	53147	10.81	-1
0	53693	10.91	-1
0	54248	11.01	-1
0	55073	11.11	-1
0	55619	11.21	-1
0	56165	11.31	-1
0	56711	11.41	-1
0	57257	11.51	-1
0	57803	11.61	-1
0	58349	11.71	-1
0	58895	11.81	-1
0	59441	11.91	-1
0	59995	12.01	-1
0	60541	12.11	-1
0	61087	12.21	-1
0	61633	12.31	-1
0	62179	12.41	-1
0	62725	12.51	-1
0	63271	12.61	-1
0	63817	12.71	-1
0	64363	12.81	-1
0	64909	12.91	-1
0	65463	13.01	-1
0	66009	13.11	-1
0	66555	13.21	-1
0	67101	13.31	-1
0	67647	13.41	-1
0	68193	13.51	-1
0	68739	13.61	-1
0	69285	13.71	-1
0	69831	13.81	-1
0	70377	13.91	-1
0	70931	14.01	-1
0	71477	14.11	-1
0	72023	14.21	-1
0	72569	14.31	-1
0	73115	14.41	-1
0	73661	14.51	-1
0	74207	14.61	-1
0	74753	14.71	-1
0	75299	14.81	-1
0	75845	14.91	-1
0	76399	15.01	-1
0	76945	15.11	-1
0	77491	15.21	-1
0	78037	15.31	-1
0	78583	15.41	-1
0	79129	15.51	-1
0	79675	15.61	-1
0	80221	15.71	-1
0	80767	15.81	-1
0	81313	15.91	-1
0	81867	16.01	-1
0	82413	16.11	-1
0	82959	16.21	-1
0	83505	16.31	-1
0	84051	16.41	-1
0	84597	16.51	-1
0	85143	16.61	-1
0	85689	16.71	-1
0	86235	16.81	-1
0	86781	16.91	-1
0	87335	17.01	-1
0	87881	17.11	-1
0	88427	17.21	-1
0	88973	17.31	-1
0	89519	17.41	-1
0	90065	17.51	-1
0	90611	17.61	-1
0	91157	17.71	-1
0	91703	17.81	-1
0	92249	17.91	-1
0	92803	18.01	-1
0	93349	18.11	-1
0	93895	18.21	-1
0	94441	18.31	-1
0	94987	18.41	-1
0	95533	18.51	-1
0	96079	18.61	-1
0	96625	18.71	-1
0	97171	18.81	-1
0	97717	18.91	-1
0	98271	19.01	-1
0	98817	19.11	-1
0	99363	19.21	-1
0	99909	19.31	-1
0	100455	19.41	-1
0	101001	19.51	-1
0	101547	19.61	-1
0	102093	19.71	-1
0	102639	19.81	-1
0	103185	19.91	-1
0	103739	20.01	-1
0	104285	20.11	-1
0	104831	20.21	-1
0	105377	20.31	-1
0	105923	20.41	-1
0	106469	20.51	-1
0	107015	20.61	-1
0	107561	20.71	-1
0	108107	20.81	-1
0	108653	20.91	-1
0	109207	21.01	-1
0	109753	21.11	-1
0	110299	21.21	-1
0	110845	21.31	-1
0	111391	21.41	-1
0	111937	21.51	-1
0	112483	21.61	-1
0	113029	21.71	-1
0	113575	21.81	-1
0	114121	21.91	-1
0	114675	22.01	-1
0	115221	22.11	-1
0	115767	22.21	-1
0	116313	22.31	-1
0	116859	22.41	-1
0	117405	22.51	-1
0	117951	22.61	-1
0	118497	22.71	-1
0	119043	22.81	-1
0	119589	22.91	-1
0	120143	23.01	-1
0	120689	23.11	-1
0	121235	23.21	-1
0	121781	23.31	-1
0	122327	23.41	-1
0	122873	23.51	-1
0	123419	23.61	-1
0	123965	23.71	-1
0	124511	23.81	-1
0	125057	23.91	-1
0	125611	24.01	-1
0	126157	24.11	-1
0	126703	24.21	-1
0	127249	24.31	-1
0	127795	24.41	-1
0	128341	24.51	-1
0	128887	24.61	-1
0	129433	24.71	-1
0	129979	24.81	-1
0	130525	24.91	-1
0	131079	25.01	-1
0	131625	25.11	-1
0	132171	25.21	-1
0	132717	25.31	-1
0	133263	25.41	-1
0	133809	25.51	-1
0	134355	25.61	-1
0	134901	25.71	-1
0	135447	25.81	-1
0	135993	25.91	-1
0	136547	26.01	-1
0	137093	26.11	-1
0	137639	26.21	-1
0	138185	26.31	-1
0	138731	26.41	-1
0	139277	26.51	-1
0	139823	26.61	-1
0	140369	26.71	-1
0	140915	26.81	-1
0	141461	26.91	-1
0	142015	27.01	-1
0	142561	27.11	-1
0	143107	27.21	-1
0	143653	27.31	-1
0	144199	27.41	-1
0	144745	27.51	-1
0	145291	27.61	-1
0	145837	27.71	-1
0	146383	27.81	-1
0	146929	27.91	-1
0	147483	28.01	-1
0	148029	28.11	-1
0	148575	28.21	-1
0	149121	28.31	-1
0	149667	28.41	-1
0	150213	28.51	-1
0	150759	28.61	-1
0	151305	28.71	-1
0	151851	28.81	-1
0	152397	28.91	-1
0	152951	29.01	-1
0	153497	29.11	-1
0	154043	29.21	-1
0	154589	29.31	-1
0	155135	29.41	-1
0	155681	29.51	-1
0	156227	29.61	-1
0	156773	29.71	-1
0	157319	29.81	-1
0	157865	29.91	-1
0	158419	30.01	-1
0	158965	30.11	-1
0	159511	30.21	-1
0	160057	30.31	-1
0	160603	30.41	-1
0	161149	30.51	-1
0	161695	30.61	-1
0	162241	30.71	-1
0	162787	30.81	-1
0	163333	30.91	-1
0	163887	31.01	-1
0	164433	31.11	-1
0	164979	31.21	-1
0	165525	31.31	-1
0	166071	31.41	-1
0	166617	31.51	-1
0	167163	31.61	-1
0	167709	31.71	-1
0	168255	31.81	-1
0	168801	31.91	-1
0	169355	32.01	-1
0	169901	32.11	-1
0	170447	32.21	-1
0	170993	32.31	-1
0	171539	32.41	-1
0	172085	32.51	-1
0	172631	32.61	-1
0	173177	32.71	-1
0	173723	32.81	-1
0	174269	32.91	-1
0	174823	33.01	-1
0	175369	33.11	-1
0	175915	33.21	-1
0	176461	33.31	-1
0	177007	33.41	-1
0	177553	33.51	-1
0	178099	33.61	-1
0	178645	33.71	-1
0	179191	33.81	-1
0	179737	33.91	-1
0	180291	34.01	-1
0	180837	34.11	-1
0	181383	34.21	-1
0	181929	34.31	-1
0	182475	34.41	-1
0	183021	34.51	-1
0	183567	34.61	-1
0	184113	34.71	-1
0	184659	34.81	-1
0	185205	34.91	-1
0	185759	35.01	-1
0	186305	35.11	-1
0	186851	35.21	-1
0	187397	35.31	-1
0	187943	35.41	-1
0	188489	35.51	-1
0	189035	35.61	-1
0	189581	35.71	-1
0	190127	35.81	-1
0	190673	35.91	-1
0	191227	36.01	-1
0	191773	36.11	-1
0	192319	36.21	-1
0	192865	36.31	-1
0	193411	36.41	-1
0	193957	36.51	-1
0	194503	36.61	-1
0	195049	36.71	-1
0	195595	36.81	-1
0	196141	36.91	-1
0	196695	37.01	-1
0	197241	37.11	-1
0	197787	37.21	-1
0	198333	37.31	-1
0	198879	37.41	-1
0	199425	37.51	-1
0	199971	37.61	-1
0	200517	37.71	-1
0	201063	37.81	-1
0	201609	37.91	-1
0	202163	38.01	-1
0	202709	38.11	-1
0	203255	38.21	-1
0	203801	38.31	-1
0	204347	38.41	-1
0	204893	38.51	-1
0	205439	38.61	-1
0	205985	38.71	-1
0	206531	38.81	-1
0	207077	38.91	-1
0	207631	39.01	-1
0	208177	39.11	-1
0	208723	39.21	-1
0	209269	39.31	-1
0	209815	39.41	-1
0	210361	39.51	-1
0	210907	39.61	-1
0	211453	39.71	-1
0	211999	39.81	-1
0	212545	39.91	-1
0	213099	40.01	-1
0	213645	40.11	-1
0	214191	40.21	-1
0	214737	40.31	-1
0	215283	40.41	-1
0	215829	40.51	-1
0	216375	40.61	-1
0	216921	40.71	-1
0	217467	40.81	-1
0	218013	40.91	-1
0	218567	41.01	-1
0	219113	41.11	-1
0	219659	41.21	-1
0	220205	41.31	-1
0	220751	41.41	-1
0	221297	41.51	-1
0	221843	41.61	-1
0	222389	41.71	-1
0	222935	41.81	-1
0	223481	41.91	-1
0	224035	42.01	-1
0	224581	42.11	-1
0	225127	42.21	-1
0	225673	42.31	-1
0	226219	42.41	-1
0	226765	42.51	-1
0	227311	42.61	-1
0	227857	42.71	-1
0	228403	42.81	-1
0	228949	42.91	-1
0	229503	43.01	-1
0	230049	43.11	-1
0	230595	43.21	-1
0	231141	43.31	-1
0	231687	43.41	-1
0	232233	43.51	-1
0	232779	43.61	-1
0	233325	43.71	-1
0	233871	43.81	-1
0	234417	43.91	-1
0	234971	44.01	-1
0	235517	44.11	-1
0	236063	44.21	-1
0	236609	44.31	-1
0	237155	44.41	-1
0	237701	44.51	-1
0	238247	44.61	-1
0	238793	44.71	-1
0	239339	44.81	-1
0	239885	44.91	-1
0	240439	45.01	-1
0	240985	45.11	-1
0	241531	45.21	-1
0	242077	45.31	-1
0	242623	45.41	-1
0	243169	45.51	-1
0	243715	45.61	-1
0	244261	45.71	-1
0	244807	45.81	-1
0	245353	45.91	-1
0	245907	46.01	-1
0	246453	46.11	-1
0	246999	46.21	-1
0	247545	46.31	-1
0	248091	46.41	-1
0	248637	46.51	-1
0	249183	46.61	-1
0	249729	46.71	-1
0	250275	46.81	-1
0	250821	46.91	-1
0	251375	47.01	-1
0	251921	47.11	-1
0	252467	47.21	-1
0	253013	47.31	-1
0	253559	47.41	-1
0	254105	47.51	-1
0	254651	47.61	-1
0	255197	47.71	-1
0	255743	47.81	-1
0	256289	47.91	-1
0	256843	48.01	-1
0	257389	48.11	-1
0	257935	48.21	-1
0	258481	48.31	-1
0	259027	48.41	-1
0	259573	48.51	-1
0	260119	48.61	-1
0	260665	48.71	-1
0	261211	48.81	-1
0	261757	48.91	-1
0	262311	49.01	-1
0	262857	49.11	-1
0	263403	49.21	-1
0	263949	49.31	-1
0	264495	49.41	-1
0	265041	49.51	-1
0	265587	49.61	-1
0	266133	49.71	-1
0	266679	49.81	-1
0	267225	49.91	-1
0	267779	50.01	-1
0	268325	50.11	-1
0	268871	50.21	-1
0	269417	50.31	-1
0	269963	50.41	-1
0	270509	50.51	-1
0	271055	50.61	-1
0	271601	50.71	-1
0	272147	50.81	-1
0	272693	50.91	-1
0	273247	51.01	-1
0	273793	51.11	-1
0	274339	51.21	-1
0	274885	51.31	-1
0	275431	51.41	-1
0	275977	51.51	-1
0	276523	51.61	-1
0	277069	51.71	-1
0	277615	51.81	-1
0	278161	51.91	-1
0	278715	52.01	-1
0	279261	52.11	-1
0	279807	52.21	-1
0	280353	52.31	-1
0	280899	52.41	-1
0	281445	52.51	-1
0	281991	52.61	-1
0	282537	52.71	-1
0	283083	52.81	-1
0	283629	52.91	-1
0	284183	53.01	-1
0	284729	53.11	-1
0	285275	53.21	-1
0	285821	53.31	-1
0	286367	53.41	-1
0	286913	53.51	-1
0	287459	53.61	-1
0	288005	53.71	-1
0	288551	53.81	-1
0	289097	53.91	-1
0	289651	54.01	-1
0	290197	54.11	-1
0	290743	54.21	-1
0	291289	54.31	-1
0	291835	54.41	-1
0	292381	54.51	-1
0	292927	54.61	-1
0	293473	54.71	-1
0	294019	54.81	-1
0	294565	54.91	-1
0	295119	55.01	-1
0	295665	55.11	-1
0	296211	55.21	-1
0	296757	55.31	-1
0	297303	55.41	-1
0	297849	55.51	-1
0	298395	55.61	-1
0	298941	55.71	-1
0	299487	55.81	-1
0	300033	55.91	-1
0	300587	56.01	-1
0	301133	56.11	-1
0	301679	56.21	-1
0	302225	56.31	-1
0	302771	56.41	-1
0	303317	56.51	-1
0	303863	56.61	-1
0	304409	56.71	-1
0	304955	56.81	-1
0	305501	56.91	-1
0	306055	57.01	-1
0	306601	57.11	-1
0	307147	57.21	-1
0	307693	57.31	-1
0	308239	57.41	-1
0	308785	57.51	-1
0	309331	57.61	-1
0	309877	57.71	-1
0	310423	57.81	-1
0	310969	57.91	-1
0	311523	58.01	-1
0	312069	58.11	-1
0	312615	58.21	-1
0	313161	58.31	-1
0	313707	58.41	-1
0	314253	58.51	-1
0	314799	58.61	-1
0	315345	58.71	-1
0	315891	58.81	-1
0	316437	58.91	-1
0	316991	59.01	-1
0	317537	59.11	-1
0	318083	59.21	-1
0	318629	59.31	-1
0	319175	59.41	-1
0	319721	59.51	-1
0	320267	59.61	-1
0	320813	59.71	-1
0	321359	59.81	-1
0	321905	59.91	-1
0	322459	60.01	-1
0	323005	60.11	-1
0	323551	60.21	-1
0	324097	60.31	-1
0	324643	60.41	-1
0	325189	60.51	-1
0	325735	60.61	-1
0	326281	60.71	-1
0	326827	60.81	-1
0	327373	60.91	-1
0	327927	61.01	-1
0	328473	61.11	-1
0	329019	61.21	-1
0	329565	61.31	-1
0	330111	61.41	-1
0	330657	61.51	-1
0	331203	61.61	-1
0	331749	61.71	-1
0	332295	61.81	-1
0	332841	61.91	-1
0	333395	62.01	-1
0	333941	62.11	-1
0	334487	62.21	-1
0	335033	62.31	-1
0	335579	62.41	-1
0	336125	62.51	-1
0	336671	62.61	-1
0	337217	62.71	-1
0	337763	62.81	-1
0	338309	62.91	-1
0	338863	63.01	-1
0	339409	63.11	-1
0	339955	63.21	-1
0	340501	63.31	-1
0	341047	63.41	-1
0	341593	63.51	-1
0	342139	63.61	-1
0	342685	63.71	-1
0	343231	63.81	-1
0	343777	63.91	-1
0	344331	64.01	-1
0	344877	64.11	-1
0	345423	64.21	-1
0	345969	64.31	-1
0	346515	64.41	-1
0	347061	64.51	-1
0	347607	64.61	-1
0	348153	64.71	-1
0	348699	64.81	-1
0	349245	64.91	-1
0	349799	65.01	-1
0	350345	65.11	-1
0	350891	65.21	-1
0	351437	65.31	-1
0	351983	65.41	-1
0	352529	65.51	-1
0	353075	65.61	-1
0	353621	65.71	-1
0	354167	65.81	-1
0	354713	65.91	-1
0	355267	66.01	-1
0	355813	66.11	-1
0	356359	66.21	-1
0	356905	66.31	-1
0	357451	66.41	-1
0	357997	66.51	-1
0	358543	66.61	-1
0	359089	66.71	-1
0	359635	66.81	-1
0	360181	66.91	-1
0	360735	67.01	-1
0	361281	67.11	-1
0	361827	67.21	-1
0	362373	67.31	-1
0	362919	67.41	-1
0	363465	67.51	-1
0	364011	67.61	-1
0	364557	67.71	-1
0	365103	67.81	-1
0	365649	67.91	-1
0	366203	68.01	-1
0	366749	68.11	-1
0	367295	68.21	-1
0	367841	68.31	-1
0	368387	68.41	-1
0	368933	68.51	-1
0	369479	68.61	-1
0	370025	68.71	-1
0	370571	68.81	-1
0	371117	68.91	-1
0	371671	69.01	-1
0	372217	69.11	-1
0	372763	69.21	-1
0	373309	69.31	-1
0	373855	69.41	-1
0	374401	69.51	-1
0	374947	69.61	-1
0	375493	69.71	-1
0	376039	69.81	-1
0	376585	69.91	-1
0	377139	70.01	-1
0	377685	70.11	-1
0	378231	70.21	-1
0	378777	70.31	-1
0	379323	70.41	-1
0	379869	70.51	-1
0	380415	70.61	-1
0	380961	70.71	-1
0	381507	70.81	-1
0	382053	70.91	-1
0	382607	71.01	-1
0	383153	71.11	-1
0	383699	71.21	-1
0	384245	71.31	-1
0	384791	71.41	-1
0	385337	71.51	-1
0	385883	71.61	-1
0	386429	71.71	-1
0	386975	71.81	-1
0	387521	71.91	-1
0	388075	72.01	-1
0	388621	72.11	-1
0	389167	72.21	-1
0	389713	72.31	-1
0	391189	72.41	-1
0	391735	72.51	-1
0	392281	72.61	-1
0	392827	72.71	-1
0	393373	72.81	-1
0	393920	72.91	-1
0	394474	73.01	-1
0	395020	73.11	-1
0	395566	73.21	-1
0	396112	73.31	-1
0	396659	73.41	-1
0	397205	73.51	-1
0	397751	73.61	-1
0	398297	73.71	-1
0	398843	73.81	-1
0	399390	73.91	-1
0	399944	74.01	-1
0	400490	74.11	-1
0	401036	74.21	-1
0	401582	74.31	-1
0	402129	74.41	-1
0	402675	74.51	-1
0	403221	74.61	-1
0	403767	74.71	-1
0	404313	74.81	-1
0	404860	74.91	-1
0	405414	75.01	-1
0	405960	75.11	-1
0	406506	75.21	-1
0	407052	75.31	-1
0	407599	75.41	-1
0	408145	75.51	-1
0	408691	75.61	-1
0	409237	75.71	-1
0	409783	75.81	-1
0	410330	75.91	-1
0	410884	76.01	-1
0	411430	76.11	-1
0	411976	76.21	-1
0	412522	76.31	-1
0	413069	76.41	-1
0	413615	76.51	-1
0	414161	76.61	-1
0	414707	76.71	-1
0	415253	76.81	-1
0	415800	76.91	-1
0	416354	77.01	-1
0	416900	77.11	-1
0	417446	77.21	-1
0	417992	77.31	-1
0	418539	77.41	-1
0	419085	77.51	-1
0	419631	77.61	-1
0	420177	77.71	-1
0	420723	77.81	-1
0	421270	77.91	-1
0	421824	78.01	-1
0	422370	78.11	-1
0	422916	78.21	-1
0	423462	78.31	-1
0	424009	78.41	-1
0	424555	78.51	-1
0	425101	78.61	-1
0	425647	78.71	-1
0	426193	78.81	-1
0	426740	78.91	-1
0	427294	79.01	-1
0	427840	79.11	-1
0	428386	79.21	-1
0	428932	79.31	-1
0	429479	79.41	-1
0	430025	79.51	-1
0	430571	79.61	-1
0	431117	79.71	-1
0	431663	79.81	-1
0	432210	79.91	-1
0	432764	80.01	-1
0	433310	80.11	-1
0	433856	80.21	-1
0	434402	80.31	-1
0	434949	80.41	-1
0	435495	80.51	-1
0	436041	80.61	-1
0	436587	80.71	-1
0	437133	80.81	-1
0	437680	80.91	-1
0	438234	81.01	-1
0	438780	81.11	-1
0	439326	81.21	-1
0	439872	81.31	-1
0	440419	81.41	-1
0	440965	81.51	-1
0	441511	81.61	-1
0	442057	81.71	-1
0	442603	81.81	-1
0	443150	81.91	-1
0	443704	82.01	-1
0	444250	82.11	-1
0	444796	82.21	-1
0	445342	82.31	-1
0	445889	82.41	-1
0	446435	82.51	-1
0	446981	82.61	-1
0	447527	82.71	-1
0	448073	82.81	-1
0	448620	82.91	-1
0	449174	83.01	-1
0	449720	83.11	-1
0	450266	83.21	-1
0	450812	83.31	-1
0	451359	83.41	-1
0	451905	83.51	-1
0	452451	83.61	-1
0	452997	83.71	-1
0	453543	83.81	-1
0	454090	83.91	-1
0	454644	84.01	-1
0	455190	84.11	-1
0	455736	84.21	-1
0	456282	84.31	-1
0	456829	84.41	-1
0	457375	84.51	-1
0	457921	84.61	-1
0	458467	84.71	-1
0	459013	84.81	-1
0	459560	84.91	-1
0	460114	85.01	-1
0	460660	85.11	-1
0	461206	85.21	-1
0	461752	85.31	-1
0	462299	85.41	-1
0	462845	85.51	-1
0	463391	85.61	-1
0	463937	85.71	-1
0	464483	85.81	-1
0	465030	85.91	-1
0	465584	86.01	-1
0	466130	86.11	-1
0	466676	86.21	-1
0	467222	86.31	-1
0	467769	86.41	-1
0	468315	86.51	-1
0	468861	86.61	-1
0	469407	86.71	-1
0	469953	86.81	-1
0	470500	86.91	-1
0	471054	87.01	-1
0	471600	87.11	-1
0	472146	87.21	-1
0	472692	87.31	-1
0	473239	87.41	-1
0	473785	87.51	-1
0	474331	87.61	-1
0	474877	87.71	-1
0	475423	87.81	-1
0	475970	87.91	-1
0	476524	88.01	-1
0	477070	88.11	-1
0	477616	88.21	-1
0	478162	88.31	-1
0	478709	88.41	-1
0	479255	88.51	-1
0	479801	88.61	-1
0	480347	88.71	-1
0	480893	88.81	-1
0	481440	88.91	-1
0	481994	89.01	-1
0	482540	89.11	-1
0	483086	89.21	-1
0	483632	89.31	-1
0	484179	89.41	-1
0	484725	89.51	-1
0	485271	89.61	-1
0	485817	89.71	-1
0	486363	89.81	-1
0	486910	89.91	-1
0	487464	90.01	-1
0	488010	90.11	-1
0	488556	90.21	-1
0	489102	90.31	-1
0	489649	90.41	-1
0	490195	90.51	-1
0	490741	90.61	-1
0	491287	90.71	-1
0	491833	90.81	-1
0	492380	90.91	-1
0	492934	91.01	-1
0	493480	91.11	-1
0	494026	91.21	-1
0	494572	91.31	-1
0	495119	91.41	-1
0	495665	91.51	-1
0	496211	91.61	-1
0	496757	91.71	-1
0	497303	91.81	-1
0	497850	91.91	-1
0	498404	92.01	-1
0	498950	92.11	-1
0	499496	92.21	-1
0	500042	92.31	-1
0	500868	92.41	-1
0	501414	92.51	-1
0	501960	92.61	-1
0	502506	92.71	-1
0	503052	92.81	-1
0	503598	92.91	-1
0	504152	93.01	-1
0	504698	93.11	-1
0	505244	93.21	-1
0	505790	93.31	-1
0	506336	93.41	-1
0	506882	93.51	-1
0	507428	93.61	-1
0	507974	93.71	-1
0	508520	93.81	-1
0	509066	93.91	-1
0	509620	94.01	-1
0	510166	94.11	-1
0	510712	94.21	-1
0	511258	94.31	-1
0	511804	94.41	-1
0	512350	94.51	-1
0	512896	94.61	-1
0	513442	94.71	-1
0	513988	94.81	-1
0	514534	94.91	-1
0	515088	95.01	-1
0	515634	95.11	-1
0	516180	95.21	-1
0	516726	95.31	-1
0	517272	95.41	-1
0	517818	95.51	-1
0	518364	95.61	-1
0	518910	95.71	-1
0	519456	95.81	-1
0	520002	95.91	-1
0	520556	96.01	-1
0	521102	96.11	-1
0	521648	96.21	-1
0	522194	96.31	-1
0	522740	96.41	-1
0	523286	96.51	-1
0	523832	96.61	-1
0	524378	96.71	-1
0	524924	96.81	-1
0	525470	96.91	-1
0	526024	97.01	-1
0	526570	97.11	-1
0	527116	97.21	-1
0	527662	97.31	-1
0	528208	97.41	-1
0	528754	97.51	-1
0	529300	97.61	-1
0	529846	97.71	-1
0	530392	97.81	-1
0	530938	97.91	-1
0	531492	98.01	-1
0	532038	98.11	-1
0	532584	98.21	-1
0	533130	98.31	-1
0	533676	98.41	-1
0	534222	98.51	-1
0	534768	98.61	-1
0	535314	98.71	-1
0	535860	98.81	-1
0	536406	98.91	-1
0	536960	99.01	-1
0	537506	99.11	-1
0	538052	99.21	-1
0	538598	99.31	-1
0	539144	99.41	-1
0	539690	99.51	-1
0	540236	99.61	-1
0	540782	99.71	-1
0	541328	99.81	-1
0	541874	99.91	-1
0	542428	100.01	-1
0	542974	100.11	-1
0	543520	100.21	-1
0	544066	100.31	-1
0	544612	100.41	-1
0	545158	100.51	-1
0	545704	100.61	-1
0	546250	100.71	-1
0	546796	100.81	-1
0	547342	100.91	-1
0	547896	101.01	-1
0	548442	101.11	-1
0	548988	101.21	-1
0	549534	101.31	-1
0	550080	101.41	-1
0	550626	101.51	-1
0	551172	101.61	-1
0	551718	101.71	-1
0	552264	101.81	-1
0	552810	101.91	-1
0	553364	102.01	-1
0	553910	102.11	-1
0	554456	102.21	-1
0	555002	102.31	-1
0	555548	102.41	-1
0	556094	102.51	-1
0	556640	102.61	-1
0	557186	102.71	-1
0	557732	102.81	-1
0	558278	102.91	-1
0	558832	103.01	-1
0	559378	103.11	-1
0	559924	103.21	-1
0	560470	103.31	-1
0	561016	103.41	-1
0	561562	103.51	-1
0	562108	103.61	-1
0	562654	103.71	-1
0	563200	103.81	-1
0	563746	103.91	-1
0	564300	104.01	-1
0	564846	104.11	-1
0	565392	104.21	-1
0	565938	104.31	-1
0	566484	104.41	-1
0	567030	104.51	-1
0	567576	104.61	-1
0	568122	104.71	-1
0	568668	104.81	-1
0	569214	104.91	-1
0	569768	105.01	-1
0	570314	105.11	-1
0	570860	105.21	-1
0	571406	105.31	-1
0	571952	105.41	-1
0	572498	105.51	-1
0	573044	105.61	-1
0	573590	105.71	-1
0	574136	105.81	-1
0	574682	105.91	-1
0	575236	106.01	-1
0	575782	106.11	-1
0	576328	106.21	-1
0	576874	106.31	-1
0	577420	106.41	-1
0	577966	106.51	-1
0	578512	106.61	-1
0	579058	106.71	-1
0	579604	106.81	-1
0	580150	106.91	-1
0	580704	107.01	-1
0	581250	107.11	-1
0	581796	107.21	-1
0	582342	107.31	-1
0	582888	107.41	-1
0	583434	107.51	-1
0	583980	107.61	-1
0	584526	107.71	-1
0	585072	107.81	-1
0	585618	107.91	-1
0	586172	108.01	-1
0	586718	108.11	-1
0	587264	108.21	-1
0	587810	108.31	-1
0	588356	108.41	-1
0	588902	108.51	-1
0	589448	108.61	-1
0	589994	108.71	-1
0	590540	108.81	-1
0	591086	108.91	-1
0	591640	109.01	-1
0	592186	109.11	-1
0	592732	109.21	-1
0	593278	109.31	-1
0	593824	109.41	-1
0	594370	109.51	-1
0	594916	109.61	-1
0	595462	109.71	-1
0	596008	109.81	-1
0	596554	109.91	-1
0	597108	110.01	-1
0	597654	110.11	-1
0	598200	110.21	-1
0	598746	110.31	-1
0	599292	110.41	-1
0	599838	110.51	-1
0	600384	110.61	-1
0	600930	110.71	-1
0	601476	110.81	-1
0	602022	110.91	-1
0	602576	111.01	-1
0	603122	111.11	-1
0	603668	111.21	-1
0	604214	111.31	-1
0	604760	111.41	-1
0	605306	111.51	-1
0	605852	111.61	-1
0	606398	111.71	-1
0	606944	111.81	-1
0	607490	111.91	-1
0	608044	112.01	-1
0	608590	112.11	-1
0	609136	112.21	-1
0	609682	112.31	-1
0	610228	112.41	-1
0	610774	112.51	-1
0	611320	112.61	-1
0	611866	112.71	-1
0	612412	112.81	-1
0	612958	112.91	-1
0	613512	113.01	-1
0	614058	113.11	-1
0	614604	113.21	-1
0	615150	113.31	-1
0	615696	113.41	-1
0	616242	113.51	-1
0	616788	113.61	-1
0	617334	113.71	-1
0	617880	113.81	-1
0	618426	113.91	-1
0	618980	114.01	-1
0	619526	114.11	-1
0	620072	114.21	-1
0	620618	114.31	-1
0	621164	114.41	-1
0	621710	114.51	-1
0	622256	114.61	-1
0	622802	114.71	-1
0	623348	114.81	-1
0	623894	114.91	-1
0	624448	115.01	-1
0	624994	115.11	-1
0	625540	115.21	-1
0	626086	115.31	-1
0	626632	115.41	-1
0	627178	115.51	-1
0	627724	115.61	-1
0	628270	115.71	-1
0	628816	115.81	-1
0	629362	115.91	-1
0	629916	116.01	-1
0	630462	116.11	-1
0	631008	116.21	-1
0	631554	116.31	-1
0	632100	116.41	-1
0	632646	116.51	-1
0	633192	116.61	-1
0	633738	116.71	-1
0	634284	116.81	-1
0	634830	116.91	-1
0	635384	117.01	-1
0	635930	117.11	-1
0	636476	117.21	-1
0	637022	117.31	-1
0	637568	117.41	-1
0	638114	117.51	-1
0	638660	117.61	-1
0	639206	117.71	-1
0	639752	117.81	-1
0	640298	117.91	-1
0	640852	118.01	-1
0	641398	118.11	-1
0	641944	118.21	-1
0	642490	118.31	-1
0	643036	118.41	-1
0	643582	118.51	-1
0	644128	118.61	-1
0	644674	118.71	-1
0	645220	118.81	-1
0	645766	118.91	-1
0	646320	119.01	-1
0	646866	119.11	-1
0	647412	119.21	-1
0	647958	119.31	-1
0	648504	119.41	-1
0	649050	119.51	-1
0	649596	119.61	-1
0	650142	119.71	-1
0	650688	119.81	-1
0	651234	119.91	-1
1	113	1.11	0
1	659	1.21	0
1	1205	1.31	0
1	1751	1.41	0
1	2297	1.51	0
1	2843	1.61	0
1	3389	1.71	0
1	3935	1.81	0
1	4481	1.91	0
1	5035	2.01	0
1	5581	2.11	0
1	6127	2.21	0
1	6673	2.31	0
1	7219	2.41	0
1	7765	2.51	0
1	8311	2.61	0
1	8857	2.71	0
1	9403	2.81	0
1	9949	2.91	0
1	10503	3.01	0
1	11049	3.11	0
1	11595	3.21	0
1	12141	3.31	0
1	12687	3.41	0
1	13233	3.51	0
1	13779	3.61	0
1	14325	3.71	0
1	14871	3.81	0
1	15417	3.91	0
1	15971	4.01	0
1	16517	4.11	0
1	17063	4.21	0
1	17609	4.31	0
1	18155	4.41	0
1	18701	4.51	0
1	19247	4.61	0
1	19793	4.71	0
1	20339	4.81	0
1	20885	4.91	0
1	21439	5.01	0
1	21985	5.11	0
1	22531	5.21	0
1	23077	5.31	0
1	23623	5.41	0
1	24169	5.51	0
1	24715	5.61	0
1	25261	5.71	0
1	25807	5.81	0
1	26353	5.91	0
1	26907	6.01	0
1	27453	6.11	0
1	27999	6.21	0
1	28545	6.31	0
1	29091	6.41	0
1	29637	6.51	0
1	30183	6.61	0
1	30729	6.71	0
1	31275	6.81	0
1	31821	6.91	0
1	32375	7.01	0
1	32921	7.11	0
1	33467	7.21	0
1	34013	7.31	0
1	34559	7.41	0
1	35105	7.51	0
1	35651	7.61	0
1	36197	7.71	0
1	36743	7.81	0
1	37289	7.91	0
1	37843	8.01	0
1	38389	8.11	0
1	38935	8.21	0
1	39481	8.31	0
1	40027	8.41	0
1	40573	8.51	0
1	41119	8.61	0
1	41665	8.71	0
1	42211	8.81	0
1	42757	8.91	0
1	43311	9.01	0
1	43857	9.11	0
1	44403	9.21	0
1	44949	9.31	0
1	45495	9.41	0
1	46041	9.51	0
1	46587	9.61	0
1	47133	9.71	0
1	47679	9.81	0
1	48225	9.91	0
1	48779	10.01	0
1	49325	10.11	0
1	49871	10.21	0
1	50417	10.31	0
1	50963	10.41	0
1	51509	10.51	0
1	52055	10.61	0
1	52601	10.71	0
1	53147	10.81	0
1	53693	10.91	0
1	54248	11.01	0
1	55073	11.11	0
1	55619	11.21	0
1	56165	11.31	0
1	56711	11.41	0
1	57257	11.51	0
1	57803	11.61	0
1	58349	11.71	0
1	58895	11.81	0
1	59441	11.91	0
1	59995	12.01	0
1	60541	12.11	0
1	61087	12.21	0
1	61633	12.31	0
1	62179	12.41	0
1	62725	12.51	0
1	63271	12.61	0
1	63817	12.71	0
1	64363	12.81	0
1	64909	12.91	0
1	65463	13.01	0
1	66009	13.11	0
1	66555	13.21	0
1	67101	13.31	0
1	67647	13.41	0
1	68193	13.51	0
1	68739	13.61	0
1	69285	13.71	0
1	69831	13.81	0
1	70377	13.91	0
1	70931	14.01	0
1	71477	14.11	0
1	72023	14.21	0
1	72569	14.31	0
1	73115	14.41	0
1	73661	14.51	0
1	74207	14.61	0
1	74753	14.71	0
1	75299	14.81	0
1	75845	14.91	0
1	76399	15.01	0
1	76945	15.11	0
1	77491	15.21	0
1	78037	15.31	0
1	78583	15.41	0
1	79129	15.51	0
1	79675	15.61	0
1	80221	15.71	0
1	80767	15.81	0
1	81313	15.91	0
1	81867	16.01	0
1	82413	16.11	0
1	82959	16.21	0
1	83505	16.31	0
1	84051	16.41	0
1	84597	16.51	0
1	85143	16.61	0
1	85689	16.71	0
1	86235	16.81	0
1	86781	16.91	0
1	87335	17.01	0
1	87881	17.11	0
1	88427	17.21	0
1	88973	17.31	0
1	89519	17.41	0
1	90065	17.51	0
1	90611	17.61	0
1	91157	17.71	0
1	91703	17.81	0
1	92249	17.91	0
1	92803	18.01	0
1	93349	18.11	0
1	93895	18.21	0
1	94441	18.31	0
1	94987	18.41	0
1	95533	18.51	0
1	96079	18.61	0
1	96625	18.71	0
1	97171	18.81	0
1	97717	18.91	0
1	98271	19.01	0
1	98817	19.11	0
1	99363	19.21	0
1	99909	19.31	0
1	100455	19.41	0
1	101001	19.51	0
1	101547	19.61	0
1	102093	19.71	0
1	102639	19.81	0
1	103185	19.91	0
1	103739	20.01	0
1	104285	20.11	0
1	104831	20.21	0
1	105377	20.31	0
1	105923	20.41	0
1	106469	20.51	0
1	107015	20.61	0
1	107561	20.71	0
1	108107	20.81	0
1	108653	20.91	0
1	109207	21.01	0
1	109753	21.11	0
1	110299	21.21	0
1	110845	21.31	0
1	111391	21.41	0
1	111937	21.51	0
1	112483	21.61	0
1	113029	21.71	0
1	113575	21.81	0
1	114121	21.91	0
1	114675	22.01	0
1	115221	22.11	0
1	115767	22.21	0
1	116313	22.31	0
1	116859	22.41	0
1	117405	22.51	0
1	117951	22.61	0
1	118497	22.71	0
1	119043	22.81	0
1	119589	22.91	0
1	120143	23.01	0
1	120689	23.11	0
1	121235	23.21	0
1	121781	23.31	0
1	122327	23.41	0
1	122873	23.51	0
1	123419	23.61	0
1	123965	23.71	0
1	124511	23.81	0
1	125057	23.91	0
1	125611	24.01	0
1	126157	24.11	0
1	126703	24.21	0
1	127249	24.31	0
1	127795	24.41	0
1	128341	24.51	0
1	128887	24.61	0
1	129433	24.71	0
1	129979	24.81	0
1	130525	24.91	0
1	131079	25.01	0
1	131625	25.11	0
1	132171	25.21	0
1	132717	25.31	0
1	133263	25.41	0
1	133809	25.51	0
1	134355	25.61	0
1	134901	25.71	0
1	135447	25.81	0
1	135993	25.91	0
1	136547	26.01	0
1	137093	26.11	0
1	137639	26.21	0
1	138185	26.31	0
1	138731	26.41	0
1	139277	26.51	0
1	139823	26.61	0
1	140369	26.71	0
1	140915	26.81	0
1	141461	26.91	0
1	142015	27.01	0
1	142561	27.11	0
1	143107	27.21	0
1	143653	27.31	0
1	144199	27.41	0
1	144745	27.51	0
1	145291	27.61	0
1	145837	27.71	0
1	146383	27.81	0
1	146929	27.91	0
1	147483	28.01	0
1	148029	28.11	0
1	148575	28.21	0
1	149121	28.31	0
1	149667	28.41	0
1	150213	28.51	0
1	150759	28.61	0
1	151305	28.71	0
1	151851	28.81	0
1	152397	28.91	0
1	152951	29.01	0
1	153497	29.11	0
1	154043	29.21	0
1	154589	29.31	0
1	155135	29.41	0
1	155681	29.51	0
1	156227	29.61	0
1	156773	29.71	0
1	157319	29.81	0
1	157865	29.91	0
1	158419	30.01	0
1	158965	30.11	0
1	159511	30.21	0
1	160057	30.31	0
1	160603	30.41	0
1	161149	30.51	0
1	161695	30.61	0
1	162241	30.71	0
1	162787	30.81	0
1	163333	30.91	0
1	163887	31.01	0
1	164433	31.11	0
1	164979	31.21	0
1	165525	31.31	0
1	166071	31.41	0
1	166617	31.51	0
1	167163	31.61	0
1	167709	31.71	0
1	168255	31.81	0
1	168801	31.91	0
1	169355	32.01	0
1	169901	32.11	0
1	170447	32.21	0
1	170993	32.31	0
1	171539	32.41	0
1	172085	32.51	0
1	172631	32.61	0
1	173177	32.71	0
1	173723	32.81	0
1	174269	32.91	0
1	174823	33.01	0
1	175369	33.11	0
1	175915	33.21	0
1	176461	33.31	0
1	177007	33.41	0
1	177553	33.51	0
1	178099	33.61	0
1	178645	33.71	0
1	179191	33.81	0
1	179737	33.91	0
1	180291	34.01	0
1	180837	34.11	0
1	181383	34.21	0
1	181929	34.31	0
1	182475	34.41	0
1	183021	34.51	0
1	183567	34.61	0
1	184113	34.71	0
1	184659	34.81	0
1	185205	34.91	0
1	185759	35.01	0
1	186305	35.11	0
1	186851	35.21	0
1	187397	35.31	0
1	187943	35.41	0
1	188489	35.51	0
1	189035	35.61	0
1	189581	35.71	0
1	190127	35.81	0
1	190673	35.91	0
1	191227	36.01	0
1	191773	36.11	0
1	192319	36.21	0
1	192865	36.31	0
1	193411	36.41	0
1	193957	36.51	0
1	194503	36.61	0
1	195049	36.71	0
1	195595	36.81	0
1	196141	36.91	0
1	196695	37.01	0
1	197241	37.11	0
1	197787	37.21	0
1	198333	37.31	0
1	198879	37.41	0
1	199425	37.51	0
1	199971	37.61	0
1	200517	37.71	0
1	201063	37.81	0
1	201609	37.91	0
1	202163	38.01	0
1	202709	38.11	0
1	203255	38.21	0
1	203801	38.31	0
1	204347	38.41	0
1	204893	38.51	0
1	205439	38.61	0
1	205985	38.71	0
1	206531	38.81	0
1	207077	38.91	0
1	207631	39.01	0
1	208177	39.11	0
1	208723	39.21	0
1	209269	39.31	0
1	209815	39.41	0
1	210361	39.51	0
1	210907	39.61	0
1	211453	39.71	0
1	211999	39.81	0
1	212545	39.91	0
1	213099	40.01	0
1	213645	40.11	0
1	214191	40.21	0
1	214737	40.31	0
1	215283	40.41	0
1	215829	40.51	0
1	216375	40.61	0
1	216921	40.71	0
1	217467	40.81	0
1	218013	40.91	0
1	218567	41.01	0
1	219113	41.11	0
1	219659	41.21	0
1	220205	41.31	0
1	220751	41.41	0
1	221297	41.51	0
1	221843	41.61	0
1	222389	41.71	0
1	222935	41.81	0
1	223481	41.91	0
1	224035	42.01	0
1	224581	42.11	0
1	225127	42.21	0
1	225673	42.31	0
1	226219	42.41	0
1	226765	42.51	0
1	227311	42.61	0
1	227857	42.71	0
1	228403	42.81	0
1	228949	42.91	0
1	229503	43.01	0
1	230049	43.11	0
1	230595	43.21	0
1	231141	43.31	0
1	231687	43.41	0
1	232233	43.51	0
1	232779	43.61	0
1	233325	43.71	0
1	233871	43.81	0
1	234417	43.91	0
1	234971	44.01	0
1	235517	44.11	0
1	236063	44.21	0
1	236609	44.31	0
1	237155	44.41	0
1	237701	44.51	0
1	238247	44.61	0
1	238793	44.71	0
1	239339	44.81	0
1	239885	44.91	0
1	240439	45.01	0
1	240985	45.11	0
1	241531	45.21	0
1	242077	45.31	0
1	242623	45.41	0
1	243169	45.51	0
1	243715	45.61	0
1	244261	45.71	0
1	244807	45.81	0
1	245353	45.91	0
1	245907	46.01	0
1	246453	46.11	0
1	246999	46.21	0
1	247545	46.31	0
1	248091	46.41	0
1	248637	46.51	0
1	249183	46.61	0
1	249729	46.71	0
1	250275	46.81	0
1	250821	46.91	0
1	251375	47.01	0
1	251921	47.11	0
1	252467	47.21	0
1	253013	47.31	0
1	253559	47.41	0
1	254105	47.51	0
1	254651	47.61	0
1	255197	47.71	0
1	255743	47.81	0
1	256289	47.91	0
1	256843	48.01	0
1	257389	48.11	0
1	257935	48.21	0
1	258481	48.31	0
1	259027	48.41	0
1	259573	48.51	0
1	260119	48.61	0
1	260665	48.71	0
1	261211	48.81	0
1	261757	48.91	0
1	262311	49.01	0
1	262857	49.11	0
1	263403	49.21	0
1	263949	49.31	0
1	264495	49.41	0
1	265041	49.51	0
1	265587	49.61	0
1	266133	49.71	0
1	266679	49.81	0
1	267225	49.91	0
1	267779	50.01	0
1	268325	50.11	0
1	268871	50.21	0
1	269417	50.31	0
1	269963	50.41	0
1	270509	50.51	0
1	271055	50.61	0
1	271601	50.71	0
1	272147	50.81	0
1	272693	50.91	0
1	273247	51.01	0
1	273793	51.11	0
1	274339	51.21	0
1	274885	51.31	0
1	275431	51.41	0
1	275977	51.51	0
1	276523	51.61	0
1	277069	51.71	0
1	277615	51.81	0
1	278161	51.91	0
1	278715	52.01	0
1	279261	52.11	0
1	279807	52.21	0
1	280353	52.31	0
1	280899	52.41	0
1	281445	52.51	0
1	281991	52.61	0
1	282537	52.71	0
1	283083	52.81	0
1	283629	52.91	0
1	284183	53.01	0
1	284729	53.11	0
1	285275	53.21	0
1	285821	53.31	0
1	286367	53.41	0
1	286913	53.51	0
1	287459	53.61	0
1	288005	53.71	0
1	288551	53.81	0
1	289097	53.91	0
1	289651	54.01	0
1	290197	54.11	0
1	290743	54.21	0
1	291289	54.31	0
1	291835	54.41	0
1	292381	54.51	0
1	292927	54.61	0
1	293473	54.71	0
1	294019	54.81	0
1	294565	54.91	0
1	295119	55.01	0
1	295665	55.11	0
1	296211	55.21	0
1	296757	55.31	0
1	297303	55.41	0
1	297849	55.51	0
1	298395	55.61	0
1	298941	55.71	0
1	299487	55.81	0
1	300033	55.91	0
1	300587	56.01	0
1	301133	56.11	0
1	301679	56.21	0
1	302225	56.31	0
1	302771	56.41	0
1	303317	56.51	0
1	303863	56.61	0
1	304409	56.71	0
1	304955	56.81	0
1	305501	56.91	0
1	306055	57.01	0
1	306601	57.11	0
1	307147	57.21	0
1	307693	57.31	0
1	308239	57.41	0
1	308785	57.51	0
1	309331	57.61	0
1	309877	57.71	0
1	310423	57.81	0
1	310969	57.91	0
1	311523	58.01	0
1	312069	58.11	0
1	312615	58.21	0
1	313161	58.31	0
1	313707	58.41	0
1	314253	58.51	0
1	314799	58.61	0
1	315345	58.71	0
1	315891	58.81	0
1	316437	58.91	0
1	316991	59.01	0
1	317537	59.11	0
1	318083	59.21	0
1	318629	59.31	0
1	319175	59.41	0
1	319721	59.51	0
1	320267	59.61	0
1	320813	59.71	0
1	321359	59.81	0
1	321905	59.91	0
1	322459	60.01	0
1	323005	60.11	0
1	323551	60.21	0
1	324097	60.31	0
1	324643	60.41	0
1	325189	60.51	0
1	325735	60.61	0
1	326281	60.71	0
1	326827	60.81	0
1	327373	60.91	0
1	327927	61.01	0
1	328473	61.11	0
1	329019	61.21	0
1	329565	61.31	0
1	330111	61.41	0
1	330657	61.51	0
1	331203	61.61	0
1	331749	61.71	0
1	332295	61.81	0
1	332841	61.91	0
1	333395	62.01	0
1	333941	62.11	0
1	334487	62.21	0
1	335033	62.31	0
1	335579	62.41	0
1	336125	62.51	0
1	336671	62.61	0
1	337217	62.71	0
1	337763	62.81	0
1	338309	62.91	0
1	338863	63.01	0
1	339409	63.11	0
1	339955	63.21	0
1	340501	63.31	0
1	341047	63.41	0
1	341593	63.51	0
1	342139	63.61	0
1	342685	63.71	0
1	343231	63.81	0
1	343777	63.91	0
1	344331	64.01	0
1	344877	64.11	0
1	345423	64.21	0
1	345969	64.31	0
1	346515	64.41	0
1	347061	64.51	0
1	347607	64.61	0
1	348153	64.71	0
1	348699	64.81	0
1	349245	64.91	0
1	349799	65.01	0
1	350345	65.11	0
1	350891	65.21	0
1	351437	65.31	0
1	351983	65.41	0
1	352529	65.51	0
1	353075	65.61	0
1	353621	65.71	0
1	354167	65.81	0
1	354713	65.91	0
1	355267	66.01	0
1	355813	66.11	0
1	356359	66.21	0
1	356905	66.31	0
1	357451	66.41	0
1	357997	66.51	0
1	358543	66.61	0
1	359089	66.71	0
1	359635	66.81	0
1	360181	66.91	0
1	360735	67.01	0
1	361281	67.11	0
1	361827	67.21	0
1	362373	67.31	0
1	362919	67.41	0
1	363465	67.51	0
1	364011	67.61	0
1	364557	67.71	0
1	365103	67.81	0
1	365649	67.91	0
1	366203	68.01	0
1	366749	68.11	0
1	367295	68.21	0
1	367841	68.31	0
1	368387	68.41	0
1	368933	68.51	0
1	369479	68.61	0
1	370025	68.71	0
1	370571	68.81	0
1	371117	68.91	0
1	371671	69.01	0
1	372217	69.11	0
1	372763	69.21	0
1	373309	69.31	0
1	373855	69.41	0
1	374401	69.51	0
1	374947	69.61	0
1	375493	69.71	0
1	376039	69.81	0
1	376585	69.91	0
1	377139	70.01	0
1	377685	70.11	0
1	378231	70.21	0
1	378777	70.31	0
1	379323	70.41	0
1	379869	70.51	0
1	380415	70.61	0
1	380961	70.71	0
1	381507	70.81	0
1	382053	70.91	0
1	382607	71.01	0
1	383153	71.11	0
1	383699	71.21	0
1	384245	71.31	0
1	384791	71.41	0
1	385337	71.51	0
1	385883	71.61	0
1	386429	71.71	0
1	386975	71.81	0
1	387521	71.91	0
1	388075	72.01	0
1	388621	72.11	0
1	389167	72.21	0
1	389713	72.31	0
1	391189	72.41	0
1	391735	72.51	0
1	392281	72.61	0
1	392827	72.71	0
1	393373	72.81	0
1	393920	72.91	0
1	394474	73.01	0
1	395020	73.11	0
1	395566	73.21	0
1	396112	73.31	0
1	396659	73.41	0
1	397205	73.51	0
1	397751	73.61	0
1	398297	73.71	0
1	398843	73.81	0
1	399390	73.91	0
1	399944	74.01	0
1	400490	74.11	0
1	401036	74.21	0
1	401582	74.31	0
1	402129	74.41	0
1	402675	74.51	0
1	403221	74.61	0
1	403767	74.71	0
1	404313	74.81	0
1	404860	74.91	0
1	405414	75.01	0
1	405960	75.11	0
1	406506	75.21	0
1	407052	75.31	0
1	407599	75.41	0
1	408145	75.51	0
1	408691	75.61	0
1	409237	75.71	0
1	409783	75.81	0
1	410330	75.91	0
1	410884	76.01	0
1	411430	76.11	0
1	411976	76.21	0
1	412522	76.31	0
1	413069	76.41	0
1	413615	76.51	0
1	414161	76.61	0
1	414707	76.71	0
1	415253	76.81	0
1	415800	76.91	0
1	416354	77.01	0
1	416900	77.11	0
1	417446	77.21	0
1	417992	77.31	0
1	418539	77.41	0
1	419085	77.51	0
1	419631	77.61	0
1	420177	77.71	0
1	420723	77.81	0
1	421270	77.91	0
1	421824	78.01	0
1	422370	78.11	0
1	422916	78.21	0
1	423462	78.31	0
1	424009	78.41	0
1	424555	78.51	0
1	425101	78.61	0
1	425647	78.71	0
1	426193	78.81	0
1	426740	78.91	0
1	427294	79.01	0
1	427840	79.11	0
1	428386	79.21	0
1	428932	79.31	0
1	429479	79.41	0
1	430025	79.51	0
1	430571	79.61	0
1	431117	79.71	0
1	431663	79.81	0
1	432210	79.91	0
1	432764	80.01	0
1	433310	80.11	0
1	433856	80.21	0
1	434402	80.31	0
1	434949	80.41	0
1	435495	80.51	0
1	436041	80.61	0
1	436587	80.71	0
1	437133	80.81	0
1	437680	80.91	0
1	438234	81.01	0
1	438780	81.11	0
1	439326	81.21	0
1	439872	81.31	0
1	440419	81.41	0
1	440965	81.51	0
1	441511	81.61	0
1	442057	81.71	0
1	442603	81.81	0
1	443150	81.91	0
1	443704	82.01	0
1	444250	82.11	0
1	444796	82.21	0
1	445342	82.31	0
1	445889	82.41	0
1	446435	82.51	0
1	446981	82.61	0
1	447527	82.71	0
1	448073	82.81	0
1	448620	82.91	0
1	449174	83.01	0
1	449720	83.11	0
1	450266	83.21	0
1	450812	83.31	0
1	451359	83.41	0
1	451905	83.51	0
1	452451	83.61	0
1	452997	83.71	0
1	453543	83.81	0
1	454090	83.91	0
1	454644	84.01	0
1	455190	84.11	0
1	455736	84.21	0
1	456282	84.31	0
1	456829	84.41	0
1	457375	84.51	0
1	457921	84.61	0
1	458467	84.71	0
1	459013	84.81	0
1	459560	84.91	0
1	460114	85.01	0
1	460660	85.11	0
1	461206	85.21	0
1	461752	85.31	0
1	462299	85.41	0
1	462845	85.51	0
1	463391	85.61	0
1	463937	85.71	0
1	464483	85.81	0
1	465030	85.91	0
1	465584	86.01	0
1	466130	86.11	0
1	466676	86.21	0
1	467222	86.31	0
1	467769	86.41	0
1	468315	86.51	0
1	468861	86.61	0
1	469407	86.71	0
1	469953	86.81	0
1	470500	86.91	0
1	471054	87.01	0
1	471600	87.11	0
1	472146	87.21	0
1	472692	87.31	0
1	473239	87.41	0
1	473785	87.51	0
1	474331	87.61	0
1	474877	87.71	0
1	475423	87.81	0
1	475970	87.91	0
1	476524	88.01	0
1	477070	88.11	0
1	477616	88.21	0
1	478162	88.31	0
1	478709	88.41	0
1	479255	88.51	0
1	479801	88.61	0
1	480347	88.71	0
1	480893	88.81	0
1	481440	88.91	0
1	481994	89.01	0
1	482540	89.11	0
1	483086	89.21	0
1	483632	89.31	0
1	484179	89.41	0
1	484725	89.51	0
1	485271	89.61	0
1	485817	89.71	0
1	486363	89.81	0
1	486910	89.91	0
1	487464	90.01	0
1	488010	90.11	0
1	488556	90.21	0
1	489102	90.31	0
1	489649	90.41	0
1	490195	90.51	0
1	490741	90.61	0
1	491287	90.71	0
1	491833	90.81	0
1	492380	90.91	0
1	492934	91.01	0
1	493480	91.11	0
1	494026	91.21	0
1	494572	91.31	0
1	495119	91.41	0
1	495665	91.51	0
1	496211	91.61	0
1	496757	91.71	0
1	497303	91.81	0
1	497850	91.91	0
1	498404	92.01	0
1	498950	92.11	0
1	499496	92.21	0
1	500042	92.31	0
1	500868	92.41	0
1	501414	92.51	0
1	501960	92.61	0
1	502506	92.71	0
1	503052	92.81	0
1	503598	92.91	0
1	504152	93.01	0
1	504698	93.11	0
1	505244	93.21	0
1	505790	93.31	0
1	506336	93.41	0
1	506882	93.51	0
1	507428	93.61	0
1	507974	93.71	0
1	508520	93.81	0
1	509066	93.91	0
1	509620	94.01	0
1	510166	94.11	0
1	510712	94.21	0
1	511258	94.31	0
1	511804	94.41	0
1	512350	94.51	0
1	512896	94.61	0
1	513442	94.71	0
1	513988	94.81	0
1	514534	94.91	0
1	515088	95.01	0
1	515634	95.11	0
1	516180	95.21	0
1	516726	95.31	0
1	517272	95.41	0
1	517818	95.51	0
1	518364	95.61	0
1	518910	95.71	0
1	519456	95.81	0
1	520002	95.91	0
1	520556	96.01	0
1	521102	96.11	0
1	521648	96.21	0
1	522194	96.31	0
1	522740	96.41	0
1	523286	96.51	0
1	523832	96.61	0
1	524378	96.71	0
1	524924	96.81	0
1	525470	96.91	0
1	526024	97.01	0
1	526570	97.11	0
1	527116	97.21	0
1	527662	97.31	0
1	528208	97.41	0
1	528754	97.51	0
1	529300	97.61	0
1	529846	97.71	0
1	530392	97.81	0
1	530938	97.91	0
1	531492	98.01	0
1	532038	98.11	0
1	532584	98.21	0
1	533130	98.31	0
1	533676	98.41	0
1	534222	98.51	0
1	534768	98.61	0
1	535314	98.71	0
1	535860	98.81	0
1	536406	98.91	0
1	536960	99.01	0
1	537506	99.11	0
1	538052	99.21	0
1	538598	99.31	0
1	539144	99.41	0
1	539690	99.51	0
1	540236	99.61	0
1	540782	99.71	0
1	541328	99.81	0
1	541874	99.91	0
1	542428	100.01	0
1	542974	100.11	0
1	543520	100.21	0
1	544066	100.31	0
1	544612	100.41	0
1	545158	100.51	0
1	545704	100.61	0
1	546250	100.71	0
1	546796	100.81	0
1	547342	100.91	0
1	547896	101.01	0
1	548442	101.11	0
1	548988	101.21	0
1	549534	101.31	0
1	550080	101.41	0
1	550626	101.51	0
1	551172	101.61	0
1	551718	101.71	0
1	552264	101.81	0
1	552810	101.91	0
1	553364	102.01	0
1	553910	102.11	0
1	554456	102.21	0
1	555002	102.31	0
1	555548	102.41	0
1	556094	102.51	0
1	556640	102.61	0
1	557186	102.71	0
1	557732	102.81	0
1	558278	102.91	0
1	558832	103.01	0
1	559378	103.11	0
1	559924	103.21	0
1	560470	103.31	0
1	561016	103.41	0
1	561562	103.51	0
1	562108	103.61	0
1	562654	103.71	0
1	563200	103.81	0
1	563746	103.91	0
1	564300	104.01	0
1	564846	104.11	0
1	565392	104.21	0
1	565938	104.31	0
1	566484	104.41	0
1	567030	104.51	0
1	567576	104.61	0
1	568122	104.71	0
1	568668	104.81	0
1	569214	104.91	0
1	569768	105.01	0
1	570314	105.11	0
1	570860	105.21	0
1	571406	105.31	0
1	571952	105.41	0
1	572498	105.51	0
1	573044	105.61	0
1	573590	105.71	0
1	574136	105.81	0
1	574682	105.91	0
1	575236	106.01	0
1	575782	106.11	0
1	576328	106.21	0
1	576874	106.31	0
1	577420	106.41	0
1	577966	106.51	0
1	578512	106.61	0
1	579058	106.71	0
1	579604	106.81	0
1	580150	106.91	0
1	580704	107.01	0
1	581250	107.11	0
1	581796	107.21	0
1	582342	107.31	0
1	582888	107.41	0
1	583434	107.51	0
1	583980	107.61	0
1	584526	107.71	0
1	585072	107.81	0
1	585618	107.91	0
1	586172	108.01	0
1	586718	108.11	0
1	587264	108.21	0
1	587810	108.31	0
1	588356	108.41	0
1	588902	108.51	0
1	589448	108.61	0
1	589994	108.71	0
1	590540	108.81	0
1	591086	108.91	0
1	591640	109.01	0
1	592186	109.11	0
1	592732	109.21	0
1	593278	109.31	0
1	593824	109.41	0
1	594370	109.51	0
1	594916	109.61	0
1	595462	109.71	0
1	596008	109.81	0
1	596554	109.91	0
1	597108	110.01	0
1	597654	110.11	0
1	598200	110.21	0
1	598746	110.31	0
1	599292	110.41	0
1	599838	110.51	0
1	600384	110.61	0
1	600930	110.71	0
1	601476	110.81	0
1	602022	110.91	0
1	602576	111.01	0
1	603122	111.11	0
1	603668	111.21	0
1	604214	111.31	0
1	604760	111.41	0
1	605306	111.51	0
1	605852	111.61	0
1	606398	111.71	0
1	606944	111.81	0
1	607490	111.91	0
1	608044	112.01	0
1	608590	112.11	0
1	609136	112.21	0
1	609682	112.31	0
1	610228	112.41	0
1	610774	112.51	0
1	611320	112.61	0
1	611866	112.71	0
1	612412	112.81	0
1	612958	112.91	0
1	613512	113.01	0
1	614058	113.11	0
1	614604	113.21	0
1	615150	113.31	0
1	615696	113.41	0
1	616242	113.51	0
1	616788	113.61	0
1	617334	113.71	0
1	617880	113.81	0
1	618426	113.91	0
1	618980	114.01	0
1	619526	114.11	0
1	620072	114.21	0
1	620618	114.31	0
1	621164	114.41	0
1	621710	114.51	0
1	622256	114.61	0
1	622802	114.71	0
1	623348	114.81	0
1	623894	114.91	0
1	624448	115.01	0
1	624994	115.11	0
1	625540	115.21	0
1	626086	115.31	0
1	626632	115.41	0
1	627178	115.51	0
1	627724	115.61	0
1	628270	115.71	0
1	628816	115.81	0
1	629362	115.91	0
1	629916	116.01	0
1	630462	116.11	0
1	631008	116.21	0
1	631554	116.31	0
1	632100	116.41	0
1	632646	116.51	0
1	633192	116.61	0
1	633738	116.71	0
1	634284	116.81	0
1	634830	116.91	0
1	635384	117.01	0
1	635930	117.11	0
1	636476	117.21	0
1	637022	117.31	0
1	637568	117.41	0
1	638114	117.51	0
1	638660	117.61	0
1	639206	117.71	0
1	639752	117.81	0
1	640298	117.91	0
1	640852	118.01	0
1	641398	118.11	0
1	641944	118.21	0
1	642490	118.31	0
1	643036	118.41	0
1	643582	118.51	0
1	644128	118.61	0
1	644674	118.71	0
1	645220	118.81	0
1	645766	118.91	0
1	646320	119.01	0
1	646866	119.11	0
1	647412	119.21	0
1	647958	119.31	0
1	648504	119.41	0
1	649050	119.51	0
1	649596	119.61	0
1	650142	119.71	0
1	650688	119.81	0
1	651234	119.91	0
2	113	1.11	0
2	659	1.21	0
2	1205	1.31	0
2	1751	1.41	0
2	2297	1.51	0
2	2843	1.61	0
2	3389	1.71	0
2	3935	1.81	0
2	4481	1.91	0
2	5035	2.01	0
2	5581	2.11	0
2	6127	2.21	0
2	6673	2.31	0
2	7219	2.41	0
2	7765	2.51	0
2	8311	2.61	0
2	8857	2.71	0
2	9403	2.81	0
2	9949	2.91	0
2	10503	3.01	0
2	11049	3.11	0
2	11595	3.21	0
2	12141	3.31	0
2	12687	3.41	0
2	13233	3.51	0
2	13779	3.61	0
2	14325	3.71	0
2	14871	3.81	0
2	15417	3.91	0
2	15971	4.01	0
2	16517	4.11	0
2	17063	4.21	0
2	17609	4.31	0
2	18155	4.41	0
2	18701	4.51	0
2	19247	4.61	0
2	19793	4.71	0
2	20339	4.81	0
2	20885	4.91	0
2	21439	5.01	0
2	21985	5.11	0
2	22531	5.21	0
2	23077	5.31	0
2	23623	5.41	0
2	24169	5.51	0
2	24715	5.61	0
2	25261	5.71	0
2	25807	5.81	0
2	26353	5.91	0
2	26907	6.01	0
2	27453	6.11	0
2	27999	6.21	0
2	28545	6.31	0
2	29091	6.41	0
2	29637	6.51	0
2	30183	6.61	0
2	30729	6.71	0
2	31275	6.81	0
2	31821	6.91	0
2	32375	7.01	0
2	32921	7.11	0
2	33467	7.21	0
2	34013	7.31	0
2	34559	7.41	0
2	35105	7.51	0
2	35651	7.61	0
2	36197	7.71	0
2	36743	7.81	0
2	37289	7.91	0
2	37843	8.01	0
2	38389	8.11	0
2	38935	8.21	0
2	39481	8.31	0
2	40027	8.41	0
2	40573	8.51	0
2	41119	8.61	0
2	41665	8.71	0
2	42211	8.81	0
2	42757	8.91	0
2	43311	9.01	0
2	43857	9.11	0
2	44403	9.21	0
2	44949	9.31	0
2	45495	9.41	0
2	46041	9.51	0
2	46587	9.61	0
2	47133	9.71	0
2	47679	9.81	0
2	48225	9.91	0
2	48779	10.01	0
2	49325	10.11	0
2	49871	10.21	0
2	50417	10.31	0
2	50963	10.41	0
2	51509	10.51	0
2	52055	10.61	0
2	52601	10.71	0
2	53147	10.81	0
2	53693	10.91	0
2	54248	11.01	0
2	55073	11.11	0
2	55619	11.21	0
2	56165	11.31	0
2	56711	11.41	0
2	57257	11.51	0
2	57803	11.61	0
2	58349	11.71	0
2	58895	11.81	0
2	59441	11.91	0
2	59995	12.01	0
2	60541	12.11	0
2	61087	12.21	0
2	61633	12.31	0
2	62179	12.41	0
2	62725	12.51	0
2	63271	12.61	0
2	63817	12.71	0
2	64363	12.81	0
2	64909	12.91	0
2	65463	13.01	0
2	66009	13.11	0
2	66555	13.21	0
2	67101	13.31	0
2	67647	13.41	0
2	68193	13.51	0
2	68739	13.61	0
2	69285	13.71	0
2	69831	13.81	0
2	70377	13.91	0
2	70931	14.01	0
2	71477	14.11	0
2	72023	14.21	0
2	72569	14.31	0
2	73115	14.41	0
2	73661	14.51	0
2	74207	14.61	0
2	74753	14.71	0
2	75299	14.81	0
2	75845	14.91	0
2	76399	15.01	0
2	76945	15.11	0
2	77491	15.21	0
2	78037	15.31	0
2	78583	15.41	0
2	79129	15.51	0
2	79675	15.61	0
2	80221	15.71	0
2	80767	15.81	0
2	81313	15.91	0
2	81867	16.01	0
2	82413	16.11	0
2	82959	16.21	0
2	83505	16.31	0
2	84051	16.41	0
2	84597	16.51	0
2	85143	16.61	0
2	85689	16.71	0
2	86235	16.81	0
2	86781	16.91	0
2	87335	17.01	0
2	87881	17.11	0
2	88427	17.21	0
2	88973	17.31	0
2	89519	17.41	0
2	90065	17.51	0
2	90611	17.61	0
2	91157	17.71	0
2	91703	17.81	0
2	92249	17.91	0
2	92803	18.01	0
2	93349	18.11	0
2	93895	18.21	0
2	94441	18.31	0
2	94987	18.41	0
2	95533	18.51	0
2	96079	18.61	0
2	96625	18.71	0
2	97171	18.81	0
2	97717	18.91	0
2	98271	19.01	0
2	98817	19.11	0
2	99363	19.21	0
2	99909	19.31	0
2	100455	19.41	0
2	101001	19.51	0
2	101547	19.61	0
2	102093	19.71	0
2	102639	19.81	0
2	103185	19.91	0
2	103739	20.01	0
2	104285	20.11	0
2	104831	20.21	0
2	105377	20.31	0
2	105923	20.41	0
2	106469	20.51	0
2	107015	20.61	0
2	107561	20.71	0
2	108107	20.81	0
2	108653	20.91	0
2	109207	21.01	0
2	109753	21.11	0
2	110299	21.21	0
2	110845	21.31	0
2	111391	21.41	0
2	111937	21.51	0
2	112483	21.61	0
2	113029	21.71	0
2	113575	21.81	0
2	114121	21.91	0
2	114675	22.01	0
2	115221	22.11	0
2	115767	22.21	0
2	116313	22.31	0
2	116859	22.41	0
2	117405	22.51	0
2	117951	22.61	0
2	118497	22.71	0
2	119043	22.81	0
2	119589	22.91	0
2	120143	23.01	0
2	120689	23.11	0
2	121235	23.21	0
2	121781	23.31	0
2	122327	23.41	0
2	122873	23.51	0
2	123419	23.61	0
2	123965	23.71	0
2	124511	23.81	0
2	125057	23.91	0
2	125611	24.01	0
2	126157	24.11	0
2	126703	24.21	0
2	127249	24.31	0
2	127795	24.41	0
2	128341	24.51	0
2	128887	24.61	0
2	129433	24.71	0
2	129979	24.81	0
2	130525	24.91	0
2	131079	25.01	0
2	131625	25.11	0
2	132171	25.21	0
2	132717	25.31	0
2	133263	25.41	0
2	133809	25.51	0
2	134355	25.61	0
2	134901	25.71	0
2	135447	25.81	0
2	135993	25.91	0
2	136547	26.01	0
2	137093	26.11	0
2	137639	26.21	0
2	138185	26.31	0
2	138731	26.41	0
2	139277	26.51	0
2	139823	26.61	0
2	140369	26.71	0
2	140915	26.81	0
2	141461	26.91	0
2	142015	27.01	0
2	142561	27.11	0
2	143107	27.21	0
2	143653	27.31	0
2	144199	27.41	0
2	144745	27.51	0
2	145291	27.61	0
2	145837	27.71	0
2	146383	27.81	0
2	146929	27.91	0
2	147483	28.01	0
2	148029	28.11	0
2	148575	28.21	0
2	149121	28.31	0
2	149667	28.41	0
2	150213	28.51	0
2	150759	28.61	0
2	151305	28.71	0
2	151851	28.81	0
2	152397	28.91	0
2	152951	29.01	0
2	153497	29.11	0
2	154043	29.21	0
2	154589	29.31	0
2	155135	29.41	0
2	155681	29.51	0
2	156227	29.61	0
2	156773	29.71	0
2	157319	29.81	0
2	157865	29.91	0
2	158419	30.01	0
2	158965	30.11	0
2	159511	30.21	0
2	160057	30.31	0
2	160603	30.41	0
2	161149	30.51	0
2	161695	30.61	0
2	162241	30.71	0
2	162787	30.81	0
2	163333	30.91	0
2	163887	31.01	0
2	164433	31.11	0
2	164979	31.21	0
2	165525	31.31	0
2	166071	31.41	0
2	166617	31.51	0
2	167163	31.61	0
2	167709	31.71	0
2	168255	31.81	0
2	168801	31.91	0
2	169355	32.01	0
2	169901	32.11	0
2	170447	32.21	0
2	170993	32.31	0
2	171539	32.41	0
2	172085	32.51	0
2	172631	32.61	0
2	173177	32.71	0
2	173723	32.81	0
2	174269	32.91	0
2	174823	33.01	0
2	175369	33.11	0
2	175915	33.21	0
2	176461	33.31	0
2	177007	33.41	0
2	177553	33.51	0
2	178099	33.61	0
2	178645	33.71	0
2	179191	33.81	0
2	179737	33.91	0
2	180291	34.01	0
2	180837	34.11	0
2	181383	34.21	0
2	181929	34.31	0
2	182475	34.41	0
2	183021	34.51	0
2	183567	34.61	0
2	184113	34.71	0
2	184659	34.81	0
2	185205	34.91	0
2	185759	35.01	0
2	186305	35.11	0
2	186851	35.21	0
2	187397	35.31	0
2	187943	35.41	0
2	188489	35.51	0
2	189035	35.61	0
2	189581	35.71	0
2	190127	35.81	0
2	190673	35.91	0
2	191227	36.01	0
2	191773	36.11	0
2	192319	36.21	0
2	192865	36.31	0
2	193411	36.41	0
2	193957	36.51	0
2	194503	36.61	0
2	195049	36.71	0
2	195595	36.81	0
2	196141	36.91	0
2	196695	37.01	0
2	197241	37.11	0
2	197787	37.21	0
2	198333	37.31	0
2	198879	37.41	0
2	199425	37.51	0
2	199971	37.61	0
2	200517	37.71	0
2	201063	37.81	0
2	201609	37.91	0
2	202163	38.01	0
2	202709	38.11	0
2	203255	38.21	0
2	203801	38.31	0
2	204347	38.41	0
2	204893	38.51	0
2	205439	38.61	0
2	205985	38.71	0
2	206531	38.81	0
2	207077	38.91	0
2	207631	39.01	0
2	208177	39.11	0
2	208723	39.21	0
2	209269	39.31	0
2	209815	39.41	0
2	210361	39.51	0
2	210907	39.61	0
2	211453	39.71	0
2	211999	39.81	0
2	212545	39.91	0
2	213099	40.01	0
2	213645	40.11	0
2	214191	40.21	0
2	214737	40.31	0
2	215283	40.41	0
2	215829	40.51	0
2	216375	40.61	0
2	216921	40.71	0
2	217467	40.81	0
2	218013	40.91	0
2	218567	41.01	0
2	219113	41.11	0
2	219659	41.21	0
2	220205	41.31	0
2	220751	41.41	0
2	221297	41.51	0
2	221843	41.61	0
2	222389	41.71	0
2	222935	41.81	0
2	223481	41.91	0
2	224035	42.01	0
2	224581	42.11	0
2	225127	42.21	0
2	225673	42.31	0
2	226219	42.41	0
2	226765	42.51	0
2	227311	42.61	0
2	227857	42.71	0
2	228403	42.81	0
2	228949	42.91	0
2	229503	43.01	0
2	230049	43.11	0
2	230595	43.21	0
2	231141	43.31	0
2	231687	43.41	0
2	232233	43.51	0
2	232779	43.61	0
2	233325	43.71	0
2	233871	43.81	0
2	234417	43.91	0
2	234971	44.01	0
2	235517	44.11	0
2	236063	44.21	0
2	236609	44.31	0
2	237155	44.41	0
2	237701	44.51	0
2	238247	44.61	0
2	238793	44.71	0
2	239339	44.81	0
2	239885	44.91	0
2	240439	45.01	0
2	240985	45.11	0
2	241531	45.21	0
2	242077	45.31	0
2	242623	45.41	0
2	243169	45.51	0
2	243715	45.61	0
2	244261	45.71	0
2	244807	45.81	0
2	245353	45.91	0
2	245907	46.01	0
2	246453	46.11	0
2	246999	46.21	0
2	247545	46.31	0
2	248091	46.41	0
2	248637	46.51	0
2	249183	46.61	0
2	249729	46.71	0
2	250275	46.81	0
2	250821	46.91	0
2	251375	47.01	0
2	251921	47.11	0
2	252467	47.21	0
2	253013	47.31	0
2	253559	47.41	0
2	254105	47.51	0
2	254651	47.61	0
2	255197	47.71	0
2	255743	47.81	0
2	256289	47.91	0
2	256843	48.01	0
2	257389	48.11	0
2	257935	48.21	0
2	258481	48.31	0
2	259027	48.41	0
2	259573	48.51	0
2	260119	48.61	0
2	260665	48.71	0
2	261211	48.81	0
2	261757	48.91	0
2	262311	49.01	0
2	262857	49.11	0
2	263403	49.21	0
2	263949	49.31	0
2	264495	49.41	0
2	265041	49.51	0
2	265587	49.61	0
2	266133	49.71	0
2	266679	49.81	0
2	267225	49.91	0
2	267779	50.01	0
2	268325	50.11	0
2	268871	50.21	0
2	269417	50.31	0
2	269963	50.41	0
2	270509	50.51	0
2	271055	50.61	0
2	271601	50.71	0
2	272147	50.81	0
2	272693	50.91	0
2	273247	51.01	0
2	273793	51.11	0
2	274339	51.21	0
2	274885	51.31	0
2	275431	51.41	0
2	275977	51.51	0
2	276523	51.61	0
2	277069	51.71	0
2	277615	51.81	0
2	278161	51.91	0
2	278715	52.01	0
2	279261	52.11	0
2	279807	52.21	0
2	280353	52.31	0
2	280899	52.41	0
2	281445	52.51	0
2	281991	52.61	0
2	282537	52.71	0
2	283083	52.81	0
2	283629	52.91	0
2	284183	53.01	0
2	284729	53.11	0
2	285275	53.21	0
2	285821	53.31	0
2	286367	53.41	0
2	286913	53.51	0
2	287459	53.61	0
2	288005	53.71	0
2	288551	53.81	0
2	289097	53.91	0
2	289651	54.01	0
2	290197	54.11	0
2	290743	54.21	0
2	291289	54.31	0
2	291835	54.41	0
2	292381	54.51	0
2	292927	54.61	0
2	293473	54.71	0
2	294019	54.81	0
2	294565	54.91	0
2	295119	55.01	0
2	295665	55.11	0
2	296211	55.21	0
2	296757	55.31	0
2	297303	55.41	0
2	297849	55.51	0
2	298395	55.61	0
2	298941	55.71	0
2	299487	55.81	0
2	300033	55.91	0
2	300587	56.01	0
2	301133	56.11	0
2	301679	56.21	0
2	302225	56.31	0
2	302771	56.41	0
2	303317	56.51	0
2	303863	56.61	0
2	304409	56.71	0
2	304955	56.81	0
2	305501	56.91	0
2	306055	57.01	0
2	306601	57.11	0
2	307147	57.21	0
2	307693	57.31	0
2	308239	57.41	0
2	308785	57.51	0
2	309331	57.61	0
2	309877	57.71	0
2	310423	57.81	0
2	310969	57.91	0
2	311523	58.01	0
2	312069	58.11	0
2	312615	58.21	0
2	313161	58.31	0
2	313707	58.41	0
2	314253	58.51	0
2	314799	58.61	0
2	315345	58.71	0
2	315891	58.81	0
2	316437	58.91	0
2	316991	59.01	0
2	317537	59.11	0
2	318083	59.21	0
2	318629	59.31	0
2	319175	59.41	0
2	319721	59.51	0
2	320267	59.61	0
2	320813	59.71	0
2	321359	59.81	0
2	321905	59.91	0
2	322459	60.01	0
2	323005	60.11	0
2	323551	60.21	0
2	324097	60.31	0
2	324643	60.41	0
2	325189	60.51	0
2	325735	60.61	0
2	326281	60.71	0
2	326827	60.81	0
2	327373	60.91	0
2	327927	61.01	0
2	328473	61.11	0
2	329019	61.21	0
2	329565	61.31	0
2	330111	61.41	0
2	330657	61.51	0
2	331203	61.61	0
2	331749	61.71	0
2	332295	61.81	0
2	332841	61.91	0
2	333395	62.01	0
2	333941	62.11	0
2	334487	62.21	0
2	335033	62.31	0
2	335579	62.41	0
2	336125	62.51	0
2	336671	62.61	0
2	337217	62.71	0
2	337763	62.81	0
2	338309	62.91	0
2	338863	63.01	0
2	339409	63.11	0
2	339955	63.21	0
2	340501	63.31	0
2	341047	63.41	0
2	341593	63.51	0
2	342139	63.61	0
2	342685	63.71	0
2	343231	63.81	0
2	343777	63.91	0
2	344331	64.01	0
2	344877	64.11	0
2	345423	64.21	0
2	345969	64.31	0
2	346515	64.41	0
2	347061	64.51	0
2	347607	64.61	0
2	348153	64.71	0
2	348699	64.81	0
2	349245	64.91	0
2	349799	65.01	0
2	350345	65.11	0
2	350891	65.21	0
2	351437	65.31	0
2	351983	65.41	0
2	352529	65.51	0
2	353075	65.61	0
2	353621	65.71	0
2	354167	65.81	0
2	354713	65.91	0
2	355267	66.01	0
2	355813	66.11	0
2	356359	66.21	0
2	356905	66.31	0
2	357451	66.41	0
2	357997	66.51	0
2	358543	66.61	0
2	359089	66.71	0
2	359635	66.81	0
2	360181	66.91	0
2	360735	67.01	0
2	361281	67.11	0
2	361827	67.21	0
2	362373	67.31	0
2	362919	67.41	0
2	363465	67.51	0
2	364011	67.61	0
2	364557	67.71	0
2	365103	67.81	0
2	365649	67.91	0
2	366203	68.01	0
2	366749	68.11	0
2	367295	68.21	0
2	367841	68.31	0
2	368387	68.41	0
2	368933	68.51	0
2	369479	68.61	0
2	370025	68.71	0
2	370571	68.81	0
2	371117	68.91	0
2	371671	69.01	0
2	372217	69.11	0
2	372763	69.21	0
2	373309	69.31	0
2	373855	69.41	0
2	374401	69.51	0
2	374947	69.61	0
2	375493	69.71	0
2	376039	69.81	0
2	376585	69.91	0
2	377139	70.01	0
2	377685	70.11	0
2	378231	70.21	0
2	378777	70.31	0
2	379323	70.41	0
2	379869	70.51	0
2	380415	70.61	0
2	380961	70.71	0
2	381507	70.81	0
2	382053	70.91	0
2	382607	71.01	0
2	383153	71.11	0
2	383699	71.21	0
2	384245	71.31	0
2	384791	71.41	0
2	385337	71.51	0
2	385883	71.61	0
2	386429	71.71	0
2	386975	71.81	0
2	387521	71.91	0
2	388075	72.01	0
2	388621	72.11	0
2	389167	72.21	0
2	389713	72.31	0
2	391189	72.41	0
2	391735	72.51	0
2	392281	72.61	0
2	392827	72.71	0
2	393373	72.81	0
2	393920	72.91	0
2	394474	73.01	0
2	395020	73.11	0
2	395566	73.21	0
2	396112	73.31	0
2	396659	73.41	0
2	397205	73.51	0
2	397751	73.61	0
2	398297	73.71	0
2	398843	73.81	0
2	399390	73.91	0
2	399944	74.01	0
2	400490	74.11	0
2	401036	74.21	0
2	401582	74.31	0
2	402129	74.41	0
2	402675	74.51	0
2	403221	74.61	0
2	403767	74.71	0
2	404313	74.81	0
2	404860	74.91	0
2	405414	75.01	0
2	405960	75.11	0
2	406506	75.21	0
2	407052	75.31	0
2	407599	75.41	0
2	408145	75.51	0
2	408691	75.61	0
2	409237	75.71	0
2	409783	75.81	0
2	410330	75.91	0
2	410884	76.01	0
2	411430	76.11	0
2	411976	76.21	0
2	412522	76.31	0
2	413069	76.41	0
2	413615	76.51	0
2	414161	76.61	0
2	414707	76.71	0
2	415253	76.81	0
2	415800	76.91	0
2	416354	77.01	0
2	416900	77.11	0
2	417446	77.21	0
2	417992	77.31	0
2	418539	77.41	0
2	419085	77.51	0
2	419631	77.61	0
2	420177	77.71	0
2	420723	77.81	0
2	421270	77.91	0
2	421824	78.01	0
2	422370	78.11	0
2	422916	78.21	0
2	423462	78.31	0
2	424009	78.41	0
2	424555	78.51	0
2	425101	78.61	0
2	425647	78.71	0
2	426193	78.81	0
2	426740	78.91	0
2	427294	79.01	0
2	427840	79.11	0
2	428386	79.21	0
2	428932	79.31	0
2	429479	79.41	0
2	430025	79.51	0
2	430571	79.61	0
2	431117	79.71	0
2	431663	79.81	0
2	432210	79.91	0
2	432764	80.01	0
2	433310	80.11	0
2	433856	80.21	0
2	434402	80.31	0
2	434949	80.41	0
2	435495	80.51	0
2	436041	80.61	0
2	436587	80.71	0
2	437133	80.81	0
2	437680	80.91	0
2	438234	81.01	0
2	438780	81.11	0
2	439326	81.21	0
2	439872	81.31	0
2	440419	81.41	0
2	440965	81.51	0
2	441511	81.61	0
2	442057	81.71	0
2	442603	81.81	0
2	443150	81.91	0
2	443704	82.01	0
2	444250	82.11	0
2	444796	82.21	0
2	445342	82.31	0
2	445889	82.41	0
2	446435	82.51	0
2	446981	82.61	0
2	447527	82.71	0
2	448073	82.81	0
2	448620	82.91	0
2	449174	83.01	0
2	449720	83.11	0
2	450266	83.21	0
2	450812	83.31	0
2	451359	83.41	0
2	451905	83.51	0
2	452451	83.61	0
2	452997	83.71	0
2	453543	83.81	0
2	454090	83.91	0
2	454644	84.01	0
2	455190	84.11	0
2	455736	84.21	0
2	456282	84.31	0
2	456829	84.41	0
2	457375	84.51	0
2	457921	84.61	0
2	458467	84.71	0
2	459013	84.81	0
2	459560	84.91	0
2	460114	85.01	0
2	460660	85.11	0
2	461206	85.21	0
2	461752	85.31	0
2	462299	85.41	0
2	462845	85.51	0
2	463391	85.61	0
2	463937	85.71	0
2	464483	85.81	0
2	465030	85.91	0
2	465584	86.01	0
2	466130	86.11	0
2	466676	86.21	0
2	467222	86.31	0
2	467769	86.41	0
2	468315	86.51	0
2	468861	86.61	0
2	469407	86.71	0
2	469953	86.81	0
2	470500	86.91	0
2	471054	87.01	0
2	471600	87.11	0
2	472146	87.21	0
2	472692	87.31	0
2	473239	87.41	0
2	473785	87.51	0
2	474331	87.61	0
2	474877	87.71	0
2	475423	87.81	0
2	475970	87.91	0
2	476524	88.01	0
2	477070	88.11	0
2	477616	88.21	0
2	478162	88.31	0
2	478709	88.41	0
2	479255	88.51	0
2	479801	88.61	0
2	480347	88.71	0
2	480893	88.81	0
2	481440	88.91	0
2	481994	89.01	0
2	482540	89.11	0
2	483086	89.21	0
2	483632	89.31	0
2	484179	89.41	0
2	484725	89.51	0
2	485271	89.61	0
2	485817	89.71	0
2	486363	89.81	0
2	486910	89.91	0
2	487464	90.01	0
2	488010	90.11	0
2	488556	90.21	0
2	489102	90.31	0
2	489649	90.41	0
2	490195	90.51	0
2	490741	90.61	0
2	491287	90.71	0
2	491833	90.81	0
2	492380	90.91	0
2	492934	91.01	0
2	493480	91.11	0
2	494026	91.21	0
2	494572	91.31	0
2	495119	91.41	0
2	495665	91.51	0
2	496211	91.61	0
2	496757	91.71	0
2	497303	91.81	0
2	497850	91.91	0
2	498404	92.01	0
2	498950	92.11	0
2	499496	92.21	0
2	500042	92.31	0
2	500868	92.41	0
2	501414	92.51	0
2	501960	92.61	0
2	502506	92.71	0
2	503052	92.81	0
2	503598	92.91	0
2	504152	93.01	0
2	504698	93.11	0
2	505244	93.21	0
2	505790	93.31	0
2	506336	93.41	0
2	506882	93.51	0
2	507428	93.61	0
2	507974	93.71	0
2	508520	93.81	0
2	509066	93.91	0
2	509620	94.01	0
2	510166	94.11	0
2	510712	94.21	0
2	511258	94.31	0
2	511804	94.41	0
2	512350	94.51	0
2	512896	94.61	0
2	513442	94.71	0
2	513988	94.81	0
2	514534	94.91	0
2	515088	95.01	0
2	515634	95.11	0
2	516180	95.21	0
2	516726	95.31	0
2	517272	95.41	0
2	517818	95.51	0
2	518364	95.61	0
2	518910	95.71	0
2	519456	95.81	0
2	520002	95.91	0
2	520556	96.01	0
2	521102	96.11	0
2	521648	96.21	0
2	522194	96.31	0
2	522740	96.41	0
2	523286	96.51	0
2	523832	96.61	0
2	524378	96.71	0
2	524924	96.81	0
2	525470	96.91	0
2	526024	97.01	0
2	526570	97.11	0
2	527116	97.21	0
2	527662	97.31	0
2	528208	97.41	0
2	528754	97.51	0
2	529300	97.61	0
2	529846	97.71	0
2	530392	97.81	0
2	530938	97.91	0
2	531492	98.01	0
2	532038	98.11	0
2	532584	98.21	0
2	533130	98.31	0
2	533676	98.41	0
2	534222	98.51	0
2	534768	98.61	0
2	535314	98.71	0
2	535860	98.81	0
2	536406	98.91	0
2	536960	99.01	0
2	537506	99.11	0
2	538052	99.21	0
2	538598	99.31	0
2	539144	99.41	0
2	539690	99.51	0
2	540236	99.61	0
2	540782	99.71	0
2	541328	99.81	0
2	541874	99.91	0
2	542428	100.01	0
2	542974	100.11	0
2	543520	100.21	0
2	544066	100.31	0
2	544612	100.41	0
2	545158	100.51	0
2	545704	100.61	0
2	546250	100.71	0
2	546796	100.81	0
2	547342	100.91	0
2	547896	101.01	0
2	548442	101.11	0
2	548988	101.21	0
2	549534	101.31	0
2	550080	101.41	0
2	550626	101.51	0
2	551172	101.61	0
2	551718	101.71	0
2	552264	101.81	0
2	552810	101.91	0
2	553364	102.01	0
2	553910	102.11	0
2	554456	102.21	0
2	555002	102.31	0
2	555548	102.41	0
2	556094	102.51	0
2	556640	102.61	0
2	557186	102.71	0
2	557732	102.81	0
2	558278	102.91	0
2	558832	103.01	0
2	559378	103.11	0
2	559924	103.21	0
2	560470	103.31	0
2	561016	103.41	0
2	561562	103.51	0
2	562108	103.61	0
2	562654	103.71	0
2	563200	103.81	0
2	563746	103.91	0
2	564300	104.01	0
2	564846	104.11	0
2	565392	104.21	0
2	565938	104.31	0
2	566484	104.41	0
2	567030	104.51	0
2	567576	104.61	0
2	568122	104.71	0
2	568668	104.81	0
2	569214	104.91	0
2	569768	105.01	0
2	570314	105.11	0
2	570860	105.21	0
2	571406	105.31	0
2	571952	105.41	0
2	572498	105.51	0
2	573044	105.61	0
2	573590	105.71	0
2	574136	105.81	0
2	574682	105.91	0
2	575236	106.01	0
2	575782	106.11	0
2	576328	106.21	0
2	576874	106.31	0
2	577420	106.41	0
2	577966	106.51	0
2	578512	106.61	0
2	579058	106.71	0
2	579604	106.81	0
2	580150	106.91	0
2	580704	107.01	0
2	581250	107.11	0
2	581796	107.21	0
2	582342	107.31	0
2	582888	107.41	0
2	583434	107.51	0
2	583980	107.61	0
2	584526	107.71	0
2	585072	107.81	0
2	585618	107.91	0
2	586172	108.01	0
2	586718	108.11	0
2	587264	108.21	0
2	587810	108.31	0
2	588356	108.41	0
2	588902	108.51	0
2	589448	108.61	0
2	589994	108.71	0
2	590540	108.81	0
2	591086	108.91	0
2	591640	109.01	0
2	592186	109.11	0
2	592732	109.21	0
2	593278	109.31	0
2	593824	109.41	0
2	594370	109.51	0
2	594916	109.61	0
2	595462	109.71	0
2	596008	109.81	0
2	596554	109.91	0
2	597108	110.01	0
2	597654	110.11	0
2	598200	110.21	0
2	598746	110.31	0
2	599292	110.41	0
2	599838	110.51	0
2	600384	110.61	0
2	600930	110.71	0
2	601476	110.81	0
2	602022	110.91	0
2	602576	111.01	0
2	603122	111.11	0
2	603668	111.21	0
2	604214	111.31	0
2	604760	111.41	0
2	605306	111.51	0
2	605852	111.61	0
2	606398	111.71	0
2	606944	111.81	0
2	607490	111.91	0
2	608044	112.01	0
2	608590	112.11	0
2	609136	112.21	0
2	609682	112.31	0
2	610228	112.41	0
2	610774	112.51	0
2	611320	112.61	0
2	611866	112.71	0
2	612412	112.81	0
2	612958	112.91	0
2	613512	113.01	0
2	614058	113.11	0
2	614604	113.21	0
2	615150	113.31	0
2	615696	113.41	0
2	616242	113.51	0
2	616788	113.61	0
2	617334	113.71	0
2	617880	113.81	0
2	618426	113.91	0
2	618980	114.01	0
2	619526	114.11	0
2	620072	114.21	0
2	620618	114.31	0
2	621164	114.41	0
2	621710	114.51	0
2	622256	114.61	0
2	622802	114.71	0
2	623348	114.81	0
2	623894	114.91	0
2	624448	115.01	0
2	624994	115.11	0
2	625540	115.21	0
2	626086	115.31	0
2	626632	115.41	0
2	627178	115.51	0
2	627724	115.61	0
2	628270	115.71	0
2	628816	115.81	0
2	629362	115.91	0
2	629916	116.01	0
2	630462	116.11	0
2	631008	116.21	0
2	631554	116.31	0
2	632100	116.41	0
2	632646	116.51	0
2	633192	116.61	0
2	633738	116.71	0
2	634284	116.81	0
2	634830	116.91	0
2	635384	117.01	0
2	635930	117.11	0
2	636476	117.21	0
2	637022	117.31	0
2	637568	117.41	0
2	638114	117.51	0
2	638660	117.61	0
2	639206	117.71	0
2	639752	117.81	0
2	640298	117.91	0
2	640852	118.01	0
2	641398	118.11	0
2	641944	118.21	0
2	642490	118.31	0
2	643036	118.41	0
2	643582	118.51	0
2	644128	118.61	0
2	644674	118.71	0
2	645220	118.81	0
2	645766	118.91	0
2	646320	119.01	0
2	646866	119.11	0
2	647412	119.21	0
2	647958	119.31	0
2	648504	119.41	0
2	649050	119.51	0
2	649596	119.61	0
2	650142	119.71	0
2	650688	119.81	0
2	651234	119.91	0
3	113	1.11	-0.000358191
3	659	1.21	-0.000681704
3	1205	1.31	-0.00093487
3	1751	1.41	-0.00112579
3	2297	1.51	-0.00126221
3	2843	1.61	-0.00135149
3	3389	1.71	-0.00140049
3	3935	1.81	-0.00141557
3	4481	1.91	-0.00140255
3	5035	2.01	-0.00136671
3	5581	2.11	-0.0013128
3	6127	2.21	-0.00124502
3	6673	2.31	-0.0011671
3	7219	2.41	-0.00108223
3	7765	2.51	-0.000993208
3	8311	2.61	-0.000902362
3	8857	2.71	-0.000811651
3	9403	2.81	-0.000722679
3	9949	2.91	-0.000636729
3	10503	3.01	-0.0005548
3	11049	3.11	-0.000477639
3	11595	3.21	-0.000405773
3	12141	3.31	-0.00033954
3	12687	3.41	-0.000279116
3	13233	3.51	-0.000224541
3	13779	3.61	-0.000175743
3	14325	3.71	-0.00013256
3	14871	3.81	-9.47571e-05
3	15417	3.91	-6.2046e-05
3	15971	4.01	-3.40986e-05
3	16517	4.11	-1.05605e-05
3	17063	4.21	8.93844e-06
3	17609	4.31	2.4774e-05
3	18155	4.41	3.73203e-05
3	18701	4.51	4.69433e-05
3	19247	4.61	5.39956e-05
3	19793	4.71	5.88124e-05
3	20339	4.81	6.1709e-05
3	20885	4.91	6.29785e-05
3	21439	5.01	6.28903e-05
3	21985	5.11	6.169e-05
3	22531	5.21	5.95988e-05
3	23077	5.31	5.68144e-05
3	23623	5.41	5.35112e-05
3	24169	5.51	4.98416e-05
3	24715	5.61	4.59373e-05
3	25261	5.71	4.19105e-05
3	25807	5.81	3.78555e-05
3	26353	5.91	3.38499e-05
3	26907	6.01	2.99569e-05
3	27453	6.11	2.62259e-05
3	27999	6.21	2.26948e-05
3	28545	6.31	1.93911e-05
3	29091	6.41	1.6333e-05
3	29637	6.51	1.35314e-05
3	30183	6.61	1.09904e-05
3	30729	6.71	8.70882e-06
3	31275	6.81	6.6809e-06
3	31821	6.91	4.89747e-06
3	32375	7.01	3.3466e-06
3	32921	7.11	2.01432e-06
3	33467	7.21	8.85256e-07
3	34013	7.31	-5.68459e-08
3	34559	7.41	-8.28678e-07
3	35105	7.51	-1.44699e-06
3	35651	7.61	-1.92826e-06
3	36197	7.71	-2.28849e-06
3	36743	7.81	-2.54296e-06
3	37289	7.91	-2.7061e-06
3	37843	8.01	-2.79139e-06
3	38389	8.11	-2.8113e-06
3	38935	8.21	-2.77721e-06
3	39481	8.31	-2.69943e-06
3	40027	8.41	-2.58721e-06
3	40573	8.51	-2.44874e-06
3	41119	8.61	-2.29123e-06
3	41665	8.71	-2.12092e-06
3	42211	8.81	-1.94317e-06
3	42757	8.91	-1.7625e-06
3	43311	9.01	-1.58267e-06
3	43857	9.11	-1.40677e-06
3	44403	9.21	-1.23723e-06
3	44949	9.31	-1.07596e-06
3	45495	9.41	-9.24364e-07
3	46041	9.51	-7.83424e-07
3	46587	9.61	-6.53753e-07
3	47133	9.71	-5.35652e-07
3	47679	9.81	-4.2916e-07
3	48225	9.91	-3.34103e-07
3	48779	10.01	-2.5013e-07
3	49325	10.11	-1.76757e-07
3	49871	10.21	-1.13395e-07
3	50417	10.31	-5.93825e-08
3	50963	10.41	-1.40084e-08
3	51509	10.51	2.34657e-08
3	52055	10.61	5.3787e-08
3	52601	10.71	7.76954e-08
3	53147	10.81	9.59155e-08
3	53693	10.91	1.09142e-07
3	54248	11.01	1.18035e-07
3	55073	11.11	1.23212e-07
3	55619	11.21	1.2525e-07
3	56165	11.31	1.24675e-07
3	56711	11.41	1.21968e-07
3	57257	11.51	1.17559e-07
3	57803	11.61	1.11834e-07
3	58349	11.71	1.05132e-07
3	58895	11.81	9.77476e-08
3	59441	11.91	8.99373e-08
3	59995	12.01	8.19171e-08
3	60541	12.11	7.38677e-08
3	61087	12.21	6.59401e-08
3	61633	12.31	5.82538e-08
3	62179	12.41	5.09036e-08
3	62725	12.51	4.39606e-08
3	63271	12.61	3.74765e-08
3	63817	12.71	3.14852e-08
3	64363	12.81	2.60055e-08
3	64909	12.91	2.10438e-08
3	65463	13.01	1.65958e-08
3	66009	13.11	1.26498e-08
3	66555	13.21	9.18554e-09
3	67101	13.31	6.17888e-09
3	67647	13.41	3.60174e-09
3	68193	13.51	1.42322e-09
3	68739	13.61	-3.90088e-10
3	69285	13.71	-1.8705e-09
3	69831	13.81	-3.05107e-09
3	70377	13.91	-3.96518e-09
3	70931	14.01	-4.64375e-09
3	71477	14.11	-5.11768e-09
3	72023	14.21	-5.41434e-09
3	72569	14.31	-5.56071e-09
3	73115	14.41	-5.58096e-09
3	73661	14.51	-5.49747e-09
3	74207	14.61	-5.33085e-09
3	74753	14.71	-5.09743e-09
3	75299	14.81	-4.81464e-09
3	75845	14.91	-4.49667e-09
3	76399	15.01	-4.15525e-09
3	76945	15.11	-3.80034e-09
3	77491	15.21	-3.44151e-09
3	78037	15.31	-3.08518e-09
3	78583	15.41	-2.73772e-09
3	79129	15.51	-2.40306e-09
3	79675	15.61	-2.08544e-09
3	80221	15.71	-1.78773e-09
3	80767	15.81	-1.51132e-09
3	81313	15.91	-1.25766e-09
3	81867	16.01	-1.02673e-09
3	82413	16.11	-8.18901e-10
3	82959	16.21	-6.33804e-10
3	83505	16.31	-4.70735e-10
3	84051	16.41	-3.28271e-10
3	84597	16.51	-2.05702e-10
3	85143	16.61	-1.00897e-10
3	85689	16.71	-1.35003e-11
3	86235	16.81	5.82645e-11
3	86781	16.91	1.16174e-10
3	87335	17.01	1.61648e-10
3	87881	17.11	1.95755e-10
3	88427	17.21	2.20624e-10
3	88973	17.31	2.36966e-10
3	89519	17.41	2.45848e-10
3	90065	17.51	2.4869e-10
3	90611	17.61	2.46914e-10
3	91157	17.71	2.40874e-10
3	91703	17.81	2.31282e-10
3	92249	17.91	2.19913e-10
3	92803	18.01	2.05702e-10
3	93349	18.11	1.91491e-10
3	93895	18.21	1.7657e-10
3	94441	18.31	1.59872e-10
3	94987	18.41	1.44595e-10
3	95533	18.51	1.30385e-10
3	96079	18.61	1.16174e-10
3	96625	18.71	1.01963e-10
3	97171	18.81	8.7752e-11
3	97717	18.91	7.35412e-11
3	98271	19.01	6.21725e-11
3	98817	19.11	5.15143e-11
3	99363	19.21	4.08562e-11
3	99909	19.31	3.16192e-11
3	100455	19.41	2.45137e-11
3	101001	19.51	1.74083e-11
3	101547	19.61	1.03029e-11
3	102093	19.71	6.03961e-12
3	102639	19.81	2.4869e-12
3	103185	19.91	-1.06581e-12
3	103739	20.01	-4.61853e-12
3	104285	20.11	-8.17124e-12
3	104831	20.21	-8.88178e-12
3	105377	20.31	-8.88178e-12
3	105923	20.41	-8.88178e-12
3	106469	20.51	-8.88178e-12
3	107015	20.61	-8.88178e-12
3	107561	20.71	-8.88178e-12
3	108107	20.81	-8.88178e-12
3	108653	20.91	-8.88178e-12
3	109207	21.01	-8.88178e-12
3	109753	21.11	-8.88178e-12
3	110299	21.21	-8.88178e-12
3	110845	21.31	-8.88178e-12
3	111391	21.41	-8.88178e-12
3	111937	21.51	-8.88178e-12
3	112483	21.61	-8.88178e-12
3	113029	21.71	-8.88178e-12
3	113575	21.81	-8.88178e-12
3	114121	21.91	-8.88178e-12
3	114675	22.01	-8.88178e-12
3	115221	22.11	-8.88178e-12
3	115767	22.21	-8.17124e-12
3	116313	22.31	-7.4607e-12
3	116859	22.41	-6.75016e-12
3	117405	22.51	-6.03961e-12
3	117951	22.61	-5.68434e-12
3	118497	22.71	-4.9738e-12
3	119043	22.81	-4.61853e-12
3	119589	22.91	-4.26326e-12
3	120143	23.01	-3.55271e-12
3	120689	23.11	-3.19744e-12
3	121235	23.21	-3.19744e-12
3	121781	23.31	-2.84217e-12
3	122327	23.41	-2.4869e-12
3	122873	23.51	-2.13163e-12
3	123419	23.61	-2.13163e-12
3	123965	23.71	-1.77636e-12
3	124511	23.81	-1.77636e-12
3	125057	23.91	-1.42109e-12
3	125611	24.01	-1.42109e-12
3	126157	24.11	-1.06581e-12
3	126703	24.21	-1.06581e-12
3	127249	24.31	-1.06581e-12
3	127795	24.41	-1.06581e-12
3	128341	24.51	-7.10543e-13
3	128887	24.61	-7.10543e-13
3	129433	24.71	-7.10543e-13
3	129979	24.81	-7.10543e-13
3	130525	24.91	-7.10543e-13
3	131079	25.01	-3.55271e-13
3	131625	25.11	-3.55271e-13
3	132171	25.21	-3.55271e-13
3	132717	25.31	-3.55271e-13
3	133263	25.41	-3.55271e-13
3	133809	25.51	-3.55271e-13
3	134355	25.61	-3.55271e-13
3	134901	25.71	-3.55271e-13
3	135447	25.81	-3.55271e-13
3	135993	25.91	-3.55271e-13
3	136547	26.01	0
3	137093	26.11	0
3	137639	26.21	0
3	138185	26.31	0
3	138731	26.41	0
3	139277	26.51	0
3	139823	26.61	0
3	140369	26.71	0
3	140915	26.81	0
3	141461	26.91	0
3	142015	27.01	0
3	142561	27.11	0
3	143107	27.21	0
3	143653	27.31	0
3	144199	27.41	0
3	144745	27.51	0
3	145291	27.61	0
3	145837	27.71	0
3	146383	27.81	0
[...]
114	574038	105.803542403639	0.100000844347
114	574584	105.903543247947	0.100000844308
114	575138	106.003544092215	0.100000844268
114	575684	106.103544936443	0.100000844228
114	576230	106.203545780632	0.100000844189
114	576776	106.303546624781	0.100000844149
114	577322	106.403547468893	0.100000844112
114	577868	106.503548312968	0.100000844075
114	578414	106.603536157005	0.099987844037
114	578960	106.703537001003	0.100000843998
114	579506	106.803537844966	0.100000843963
114	580052	106.903538688891	0.100000843925
114	580606	107.003539532782	0.100000843891
114	581152	107.103540376637	0.100000843855
114	581698	107.203541220456	0.100000843819
114	582244	107.30354206424	0.100000843784
114	582790	107.403542907989	0.100000843749
114	583336	107.503543751705	0.100000843716
114	583882	107.603544595388	0.100000843683
114	584428	107.703545439037	0.100000843649
114	584974	107.803546282653	0.100000843616
114	585520	107.903547126236	0.100000843583
114	586074	108.003547969787	0.100000843551
114	586620	108.103535813305	0.099987843518
114	587166	108.203536656791	0.100000843486
114	587712	108.303537500247	0.100000843456
114	588258	108.403538343672	0.100000843425
114	588804	108.503539187067	0.100000843395
114	589350	108.60354003043	0.100000843363
114	589896	108.703540873764	0.100000843334
114	590442	108.803541717067	0.100000843303
114	590988	108.90354256034	0.100000843273
114	591542	109.003543403585	0.100000843245
114	592088	109.103544246802	0.100000843217
114	592634	109.203545089989	0.100000843187
114	593180	109.30354593315	0.100000843161
114	593726	109.40354677628	0.10000084313
114	594272	109.503547619383	0.100000843103
114	594818	109.60354846246	0.100000843077
114	595364	109.703536305509	0.099987843049
114	595910	109.803537148531	0.100000843022
114	596456	109.903537991526	0.100000842995
114	597010	110.003538834496	0.10000084297
114	597556	110.103539677439	0.100000842943
114	598102	110.203540520357	0.100000842918
114	598648	110.303541363248	0.100000842891
114	599194	110.403542206115	0.100000842867
114	599740	110.503543048958	0.100000842843
114	600286	110.603543891776	0.100000842818
114	600832	110.703544734568	0.100000842792
114	601378	110.803545577337	0.100000842769
114	601924	110.903546420081	0.100000842744
114	602478	111.003547262801	0.10000084272
114	603024	111.103548105498	0.100000842697
114	603570	111.203535948173	0.099987842675
114	604116	111.303536790824	0.100000842651
114	604662	111.403537633452	0.100000842628
114	605208	111.503538476058	0.100000842606
114	605754	111.603539318642	0.100000842584
114	606300	111.703540161203	0.100000842561
114	606846	111.803541003743	0.10000084254
114	607392	111.90354184626	0.100000842517
114	607946	112.003542688757	0.100000842497
114	608492	112.103543531232	0.100000842475
114	609038	112.203544373686	0.100000842454
114	609584	112.30354521612	0.100000842434
114	610130	112.403546058534	0.100000842414
114	610676	112.503546900925	0.100000842391
114	611222	112.603547743297	0.100000842372
114	611768	112.70353558565	0.099987842353
114	612314	112.803536427983	0.100000842333
114	612860	112.903537270297	0.100000842314
114	613414	113.003538112592	0.100000842295
114	613960	113.103538954868	0.100000842276
114	614506	113.203539797124	0.100000842256
114	615052	113.303540639362	0.100000842238
114	615598	113.403541481582	0.10000084222
114	616144	113.503542323784	0.100000842202
114	616690	113.603543165967	0.100000842183
114	617236	113.703544008134	0.100000842167
114	617782	113.803544850282	0.100000842148
114	618328	113.903545692412	0.10000084213
114	618882	114.003546534526	0.100000842114
114	619428	114.103547376622	0.100000842096
114	619974	114.2035482187	0.100000842078
114	620520	114.303536060762	0.099987842062
114	621066	114.403536902808	0.100000842046
114	621612	114.503537744838	0.10000084203
114	622158	114.603538586851	0.100000842013
114	622704	114.703539428847	0.100000841996
114	623250	114.803540270829	0.100000841982
114	623796	114.903541112793	0.100000841964
114	624350	115.003541954742	0.100000841949
114	624896	115.103542796676	0.100000841934
114	625442	115.203543638594	0.100000841918
114	625988	115.303544480498	0.100000841904
114	626534	115.403545322387	0.100000841889
114	627080	115.503546164262	0.100000841875
114	627626	115.60354700612	0.100000841858
114	628172	115.703547847967	0.100000841847
114	628718	115.803535689797	0.09998784183
114	629264	115.903536531613	0.100000841816
114	629818	116.003537373418	0.100000841805
114	630364	116.103538215206	0.100000841788
114	630910	116.203539056981	0.100000841775
114	631456	116.303539898742	0.100000841761
114	632002	116.403540740491	0.100000841749
114	632548	116.503541582226	0.100000841735
114	633094	116.603542423948	0.100000841722
114	633640	116.703543265657	0.100000841709
114	634186	116.803544107354	0.100000841697
114	634732	116.903544949038	0.100000841684
114	635286	117.00354579071	0.100000841672
114	635832	117.103546632367	0.100000841657
114	636378	117.203547474013	0.100000841646
114	636924	117.303548315646	0.100000841633
114	637470	117.403536157268	0.099987841622
114	638016	117.503536998878	0.10000084161
114	638562	117.603537840476	0.100000841598
114	639108	117.703538682062	0.100000841586
114	639654	117.803539523636	0.100000841574
114	640200	117.903540365201	0.100000841565
114	640754	118.003541206755	0.100000841554
114	641300	118.103542048296	0.100000841541
114	641846	118.203542889826	0.10000084153
114	642392	118.303543731345	0.100000841519
114	642938	118.403544572852	0.100000841507
114	643484	118.50354541435	0.100000841498
114	644030	118.603546255839	0.100000841489
114	644576	118.703547097316	0.100000841477
114	645122	118.803547938783	0.100000841467
114	645668	118.903535780239	0.099987841456
114	646222	119.003536621685	0.100000841446
114	646768	119.103537463121	0.100000841436
114	647314	119.203538304548	0.100000841427
114	647860	119.303539145964	0.100000841416
114	648406	119.40353998737	0.100000841406
114	648952	119.503540828769	0.100000841399
114	649498	119.603541670158	0.100000841389
114	650044	119.703542511536	0.100000841378
114	650590	119.803543352904	0.100000841368
114	651136	119.903544194264	0.10000084136
115	392189	72.603542930922	4
115	392735	72.703543991889	4
115	393281	72.803545052532	4
115	393827	72.903546112836	4
115	394382	73.003547172772	4
115	394928	73.103548232304	4
115	395474	73.203536291387	4
115	396020	73.303537349976	4
115	396566	73.403538408016	4
115	397113	73.503539465455	4
115	397659	73.603540522234	4
115	398205	73.703541578299	4
115	398751	73.80354263359	4
115	399297	73.903543688052	4
115	399852	74.003544741625	4
115	400398	74.103545794255	4
115	400944	74.203546845888	4
115	401490	74.303547896469	4
115	402036	74.403535945946	4
115	402583	74.50353699427	4
115	403129	74.603538041393	4
115	403675	74.703539087269	4
115	404221	74.803540131855	4
115	404767	74.903541175108	4
115	405322	75.00354221699	4
115	405868	75.103543257461	4
115	406414	75.20354429649	4
115	406960	75.303545334042	4
115	407506	75.403546370085	4
115	408053	75.503547404592	4
115	408599	75.603548437535	4
115	409145	75.70353646889	4
115	409691	75.803537498632	4
115	410237	75.90353852674	4
115	410792	76.003539553195	4
115	411338	76.10354057798	4
115	411878	76.203541601079	4
115	412424	76.303542622478	4
115	412970	76.403543642163	4
115	413517	76.503544660124	4
115	414063	76.603545676351	4
115	414609	76.703546690836	4
115	415155	76.803547703569	4
115	415701	76.90353571455	4
115	416256	77.003536723769	4
115	416802	77.103537731224	4
115	417348	77.203538736913	4
115	417894	77.303539740834	4
115	418440	77.403540742986	4
115	418987	77.503541743372	4
115	419533	77.603542741993	4
115	420079	77.703543738851	4
115	420625	77.80354473395	4
115	421171	77.903545727293	4
115	421726	78.003546718884	4
115	422272	78.10354770873	4
115	422818	78.203535696837	4
115	423364	78.303536683214	4
115	423910	78.403537667864	4
115	424457	78.503538650797	4
115	425003	78.603539632024	4
115	425549	78.703540611553	4
115	426095	78.80354158939	4
115	426641	78.903542565551	4
115	427196	79.003543540044	4
115	427742	79.103544512875	4
115	428288	79.20354548406	4
115	428834	79.30354645361	4
115	429380	79.403547421537	4
115	429927	79.503548387852	4
115	430473	79.603536352568	4
115	431019	79.703537315698	4
115	431565	79.803538277254	4
115	432111	79.903539237251	4
115	432666	80.003540195701	4
115	433212	80.103541152616	4
115	433758	80.203542108012	4
115	434304	80.303543061903	4
115	434850	80.403544014302	4
115	435397	80.503544965221	4
115	435943	80.603545914678	4
115	436489	80.703546862685	4
115	437035	80.803547809256	4
115	437581	80.903535754406	4
115	438136	81.003536698148	4
115	438682	81.103537640499	4
115	439228	81.203538581474	4
115	439774	81.303539521084	4
115	440320	81.403540459347	4
115	440867	81.503541396277	4
115	441413	81.603542331887	4
115	441959	81.703543266194	4
115	442505	81.803544199211	4
115	443051	81.903545130952	4
115	443606	82.003546061431	4
115	444152	82.103546990665	4
115	444698	82.203547918665	4
115	445244	82.303535845449	4
115	445790	82.403536771028	4
115	446337	82.50353769542	4
115	446883	82.603538618636	4
115	447429	82.703539540691	4
115	447975	82.803540461599	4
115	448521	82.903541381375	4
115	449076	83.003542300031	4
115	449622	83.103543217582	4
115	450168	83.203544134042	4
115	450714	83.303545049424	4
115	451260	83.403545963743	4
115	451807	83.503546877011	4
115	452353	83.60354778924	4
115	452899	83.703535700445	4
115	453445	83.803536610638	4
115	453991	83.903537519834	4
115	454546	84.003538428045	4
115	455092	84.103539335282	4
115	455638	84.20354024156	4
115	456184	84.303541146892	4
115	456730	84.403542051289	4
115	457277	84.503542954765	4
115	457823	84.603543857328	4
115	458369	84.703544758994	4
115	458915	84.803545659773	4
115	459461	84.90354655968	4
115	460016	85.003547458723	4
115	460562	85.103548356916	4
115	461108	85.203536254272	4
115	461654	85.303537150797	4
115	462200	85.403538046507	4
115	462747	85.503538941412	4
115	463293	85.603539835522	4
115	463839	85.703540728849	4
115	464385	85.803541621402	4
115	464931	85.903542513195	4
115	465486	86.003543404236	4
115	466032	86.103544294535	4
115	466578	86.203545184103	4
115	467124	86.303546072951	4
115	467670	86.403546961088	4
115	468217	86.503547848525	4
115	468763	86.603535735271	4
115	469309	86.703536621335	4
115	469855	86.80353750673	4
115	470401	86.903538391461	4
115	470956	87.003539275541	4
115	471502	87.103540158978	4
115	472048	87.203541041781	4
115	472594	87.303541923957	4
115	473140	87.403542805517	4
115	473687	87.50354368647	4
115	474233	87.603544566827	4
115	474779	87.703545446591	4
115	475325	87.803546325775	4
115	475871	87.903547204386	4
115	476426	88.003548082431	4
115	476972	88.103535959917	4
115	477518	88.203536836856	4
115	478064	88.303537713253	4
115	478610	88.403538589118	4
115	479157	88.503539464459	4
115	479703	88.60354033928	4
115	480249	88.703541213592	4
115	480795	88.8035420874	4
115	481341	88.903542960712	4
115	481896	89.003543833537	4
115	482442	89.10354470588	4
115	482988	89.20354557775	4
115	483534	89.303546449152	4
115	484080	89.403547320096	4
115	484627	89.503548190585	4
115	485173	89.603536060626	4
115	485719	89.703536930225	4
115	486265	89.803537799392	4
115	486811	89.903538668132	4
115	487366	90.003539536451	4
115	487912	90.103540404353	4
115	488458	90.203541271847	4
115	489004	90.303542138938	4
115	489550	90.403543005631	4
115	490097	90.503543871935	4
115	490643	90.603544737852	4
115	491189	90.703545603389	4
115	491735	90.803546468554	4
115	492281	90.90354733335	4
115	492836	91.003548197782	4
115	493382	91.103536061857	4
115	493928	91.20353692558	4
115	494474	91.303537788956	4
115	495020	91.40353865199	4
115	495567	91.503539514688	4
115	496113	91.603540377051	4
115	496659	91.703541239089	4
115	497205	91.803542100806	4
115	497751	91.903542962204	4
115	498306	92.00354382329	4
115	498852	92.103544684068	4
115	499398	92.203545544544	4
115	499944	92.303546404721	4
115	500490	92.403547264603	4
115	501316	92.503546424535	4
115	501862	92.603547283843	4
115	502408	92.703548142868	4
115	502954	92.803536001616	4
115	503500	92.903536860092	4
115	504054	93.003537718301	4
115	504600	93.103538576247	4
115	505146	93.203539433935	4
115	505692	93.30354029137	4
115	506238	93.403541148557	4
115	506784	93.5035420055	4
115	507330	93.603542862202	4
115	507876	93.70354371867	4
115	508422	93.80354457491	4
115	508968	93.903545430923	4
115	509522	94.003546286714	4
115	510068	94.103547142287	4
115	510614	94.203547997647	4
115	511160	94.303535852796	4
115	511706	94.403536707741	4
115	512252	94.503537562484	4
115	512798	94.603538417029	4
115	513344	94.703539271382	4
115	513890	94.803540125544	4
115	514436	94.90354097952	4
115	514990	95.003541833312	4
115	515536	95.103542686926	4
115	516082	95.203543540361	4
115	516628	95.303544393623	4
115	517174	95.403545246714	4
115	517720	95.503546099639	4
115	518266	95.603546952401	4
115	518812	95.703547805001	4
115	519358	95.803535657444	4
115	519904	95.903536509731	4
115	520458	96.003537361866	4
115	521004	96.10353821385	4
115	521550	96.203539065688	4
115	522096	96.303539917382	4
115	522642	96.403540768932	4
115	523188	96.503541620343	4
115	523734	96.603542471615	4
115	524280	96.703543322754	4
115	524826	96.803544173761	4
115	525372	96.903545024636	4
115	525926	97.003545875383	4
115	526472	97.103546726003	4
115	527018	97.203547576499	4
115	527564	97.303548426874	4
115	528110	97.403536277128	4
115	528656	97.503537127265	4
115	529202	97.603537977284	4
115	529748	97.703538827191	4
115	530294	97.803539676983	4
115	530840	97.903540526664	4
115	531394	98.003541376236	4
115	531940	98.103542225702	4
115	532486	98.203543075061	4
115	533032	98.303543924316	4
115	533578	98.403544773467	4
115	534124	98.503545622516	4
115	534670	98.603546471466	4
115	535216	98.703547320317	4
115	535762	98.803548169073	4
115	536308	98.903536017733	4
115	536862	99.003536866299	4
115	537408	99.103537714771	4
115	537954	99.203538563154	4
115	538500	99.303539411447	4
115	539046	99.403540259651	4
115	539592	99.503541107768	4
115	540138	99.603541955799	4
115	540684	99.703542803745	4
115	541230	99.803543651607	4
115	541776	99.903544499385	4
115	542330	100.003545347082	4
115	542876	100.103546194699	4
115	543422	100.203547042238	4
115	543968	100.303547889697	4
115	544514	100.403535737081	4
115	545060	100.503536584386	4
115	545606	100.603537431613	4
115	546152	100.703538278768	4
115	546698	100.803539125852	4
115	547244	100.903539972861	4
115	547798	101.003540819799	4
115	548344	101.103541666666	4
115	548890	101.203542513465	4
115	549436	101.303543360194	4
115	549982	101.403544206855	4
115	550528	101.503545053449	4
115	551074	101.603545899978	4
115	551620	101.703546746441	4
115	552166	101.803547592838	4
115	552712	101.903548439174	4
115	553266	102.003536285446	4
115	553812	102.103537131655	4
115	554358	102.203537977802	4
115	554904	102.303538823888	4
115	555450	102.403539669915	4
115	555996	102.50354051588	4
115	556542	102.603541361789	4
115	557088	102.703542207642	4
115	557634	102.803543053436	4
115	558180	102.903543899174	4
115	558734	103.003544744856	4
115	559280	103.103545590481	4
115	559826	103.203546436055	4
115	560372	103.303547281574	4
115	560918	103.403548127039	4
115	561464	103.503535972452	4
115	562010	103.603536817812	4
115	562556	103.703537663121	4
115	563102	103.803538508379	4
115	563648	103.903539353585	4
115	564202	104.003540198743	4
115	564748	104.103541043851	4
115	565294	104.203541888909	4
115	565840	104.303542733918	4
115	566386	104.403543578881	4
115	566932	104.503544423796	4
115	567478	104.603545268666	4
115	568024	104.703546113489	4
115	568570	104.803546958266	4
115	569116	104.903547802998	4
115	569670	105.003535647685	4
115	570216	105.103536492329	4
115	570762	105.203537336929	4
115	571308	105.303538181486	4
115	571854	105.403539026	4
115	572400	105.503539870473	4
115	572946	105.603540714903	4
115	573492	105.703541559292	4
115	574038	105.803542403639	4
115	574584	105.903543247947	4
115	575138	106.003544092215	4
115	575684	106.103544936443	4
115	576230	106.203545780632	4
115	576776	106.303546624781	4
115	577322	106.403547468893	4
115	577868	106.503548312968	4
115	578414	106.603536157005	4
115	578960	106.703537001003	4
115	579506	106.803537844966	4
115	580052	106.903538688891	4
115	580606	107.003539532782	4
115	581152	107.103540376637	4
115	581698	107.203541220456	4
115	582244	107.30354206424	4
115	582790	107.403542907989	4
115	583336	107.503543751705	4
115	583882	107.603544595388	4
115	584428	107.703545439037	4
115	584974	107.803546282653	4
115	585520	107.903547126236	4
115	586074	108.003547969787	4
115	586620	108.103535813305	4
115	587166	108.203536656791	4
115	587712	108.303537500247	4
115	588258	108.403538343672	4
115	588804	108.503539187067	4
115	589350	108.60354003043	4
115	589896	108.703540873764	4
115	590442	108.803541717067	4
115	590988	108.90354256034	4
115	591542	109.003543403585	4
115	592088	109.103544246802	4
115	592634	109.203545089989	4
115	593180	109.30354593315	4
115	593726	109.40354677628	4
115	594272	109.503547619383	4
115	594818	109.60354846246	4
115	595364	109.703536305509	4
115	595910	109.803537148531	4
115	596456	109.903537991526	4
115	597010	110.003538834496	4
115	597556	110.103539677439	4
115	598102	110.203540520357	4
115	598648	110.303541363248	4
115	599194	110.403542206115	4
115	599740	110.503543048958	4
115	600286	110.603543891776	4
115	600832	110.703544734568	4
115	601378	110.803545577337	4
115	601924	110.903546420081	4
115	602478	111.003547262801	4
115	603024	111.103548105498	4
115	603570	111.203535948173	4
115	604116	111.303536790824	4
115	604662	111.403537633452	4
115	605208	111.503538476058	4
115	605754	111.603539318642	4
115	606300	111.703540161203	4
115	606846	111.803541003743	4
115	607392	111.90354184626	4
115	607946	112.003542688757	4
115	608492	112.103543531232	4
115	609038	112.203544373686	4
115	609584	112.30354521612	4
115	610130	112.403546058534	4
115	610676	112.503546900925	4
115	611222	112.603547743297	4
115	611768	112.70353558565	4
115	612314	112.803536427983	4
115	612860	112.903537270297	4
115	613414	113.003538112592	4
115	613960	113.103538954868	4
115	614506	113.203539797124	4
115	615052	113.303540639362	4
115	615598	113.403541481582	4
115	616144	113.503542323784	4
115	616690	113.603543165967	4
115	617236	113.703544008134	4
115	617782	113.803544850282	4
115	618328	113.903545692412	4
115	618882	114.003546534526	4
115	619428	114.103547376622	4
115	619974	114.2035482187	4
115	620520	114.303536060762	4
115	621066	114.403536902808	4
115	621612	114.503537744838	4
115	622158	114.603538586851	4
115	622704	114.703539428847	4
115	623250	114.803540270829	4
115	623796	114.903541112793	4
115	624350	115.003541954742	4
115	624896	115.103542796676	4
115	625442	115.203543638594	4
115	625988	115.303544480498	4
115	626534	115.403545322387	4
115	627080	115.503546164262	4
115	627626	115.60354700612	4
115	628172	115.703547847967	4
115	628718	115.803535689797	4
115	629264	115.903536531613	4
115	629818	116.003537373418	4
115	630364	116.103538215206	4
115	630910	116.203539056981	4
115	631456	116.303539898742	4
115	632002	116.403540740491	4
115	632548	116.503541582226	4
115	633094	116.603542423948	4
115	633640	116.703543265657	4
115	634186	116.803544107354	4
115	634732	116.903544949038	4
115	635286	117.00354579071	4
115	635832	117.103546632367	4
115	636378	117.203547474013	4
115	636924	117.303548315646	4
115	637470	117.403536157268	4
115	638016	117.503536998878	4
115	638562	117.603537840476	4
115	639108	117.703538682062	4
115	639654	117.803539523636	4
115	640200	117.903540365201	4
115	640754	118.003541206755	4
115	641300	118.103542048296	4
115	641846	118.203542889826	4
115	642392	118.303543731345	4
115	642938	118.403544572852	4
115	643484	118.50354541435	4
115	644030	118.603546255839	4
115	644576	118.703547097316	4
115	645122	118.803547938783	4
115	645668	118.903535780239	4
115	646222	119.003536621685	4
115	646768	119.103537463121	4
115	647314	119.203538304548	4
115	647860	119.303539145964	4
115	648406	119.40353998737	4
115	648952	119.503540828769	4
115	649498	119.603541670158	4
115	650044	119.703542511536	4
115	650590	119.803543352904	4
115	651136	119.903544194264	4

