version 3
run MergeManeuverNoGui-0-20240816-19:46:55-11132
attr configname MergeManeuverNoGui
attr datetime 20240816-19:46:55
attr datetimef 20240816-194655
attr experiment MergeManeuverNoGui
attr inifile omnetpp.ini
attr iterationvars "$nCars=4, $platoonSize=4, $nLanes=1, $caccXi=1, $caccOmegaN=0.2, $ploegH=0.5, $leaderHeadway=1.2, $leaderSpeed=100, $beaconInterval=0.1, $priority=2, $packetSize=200"
attr iterationvarsd nCars=4/platoonSize=4/nLanes=1/caccXi=1/caccOmegaN=0.2/ploegH=0.5/leaderHeadway=1.2/leaderSpeed=100/beaconInterval=0.1/priority=2/packetSize=200
attr iterationvarsf nCars=4,platoonSize=4,nLanes=1,caccXi=1,caccOmegaN=0.2,ploegH=0.5,leaderHeadway=1.2,leaderSpeed=100,beaconInterval=0.1,priority=2,packetSize=200-
attr measurement "$nCars=4, $platoonSize=4, $nLanes=1, $caccXi=1, $caccOmegaN=0.2, $ploegH=0.5, $leaderHeadway=1.2, $leaderSpeed=100, $beaconInterval=0.1, $priority=2, $packetSize=200"
attr network JoinManeuver
attr processid 11132
attr repetition 0
attr replication #0
attr resultdir results
attr runnumber 0
attr seedset 0
itervar beaconInterval 0.1
itervar caccOmegaN 0.2
itervar caccXi 1
itervar leaderHeadway 1.2
itervar leaderSpeed 100
itervar nCars 4
itervar nLanes 1
itervar packetSize 200
itervar platoonSize 4
itervar ploegH 0.5
itervar priority 2
config image-path ../../../veins/images
config extends MergeManeuver
config *.manager.command "\"sumo\""
config *.manager.ignoreGuiCommands true
config output-vector-file results/MergeManeuver_1_0.2_0.vec
config output-scalar-file results/MergeManeuver_1_0.2_0.sca
config repeat 1
config **.traffic_type "\"PlatoonsTrafficManager\""
config **.traffic.nCars 8
config **.traffic.platoonSize 4
config **.traffic.nLanes 1
config **.traffic.platoonAdditionalDistance 300m
config *.node[*].scenario_type "\"MergeManeuverScenario\""
config *.manager.command "\"sumo-gui\""
config *.manager.ignoreGuiCommands false
config output-vector-file results/MergeManeuverNoGui_1_0.2_0.vec
config output-scalar-file results/MergeManeuverNoGui_1_0.2_0.sca
config cmdenv-express-mode true
config cmdenv-autoflush true
config cmdenv-status-frequency 10s
config num-rngs 6
config network JoinManeuver
config debug-on-errors true
config print-undisposed true
config *.playgroundSizeX 65000m
config *.playgroundSizeY 25000m
config *.playgroundSizeZ 50m
config sim-time-limit "120 s"
config *.annotations.draw false
config *.obstacles.debug false
config *.world.useTorus false
config *.world.use2D false
config *.manager.updateInterval 0.01s
config *.manager.host "\"localhost\""
config *.manager.moduleType "\"org.car2x.plexe.PlatoonCar\""
config *.manager.moduleName "\"node\""
config *.manager.moduleDisplayString "\"\""
config *.manager.autoShutdown true
config *.manager.margin 25
config *.connectionManager.sendDirect true
config *.connectionManager.maxInterfDist 2600m
config *.connectionManager.drawMaxIntfDist false
config *.**.nic.mac1609_4.useServiceChannel false
config *.**.nic.mac1609_4.txPower 100mW
config *.**.nic.mac1609_4.bitrate 6Mbps
config *.**.nic.mac1609_4.useAcks true
config *.**.nic.mac1609_4.ackErrorRate 0.0
config *.**.nic.mac1609_4.frameErrorRate 0.0
config *.**.nic.phy80211p.minPowerLevel -94dBm
config *.**.nic.phy80211p.maxTXPower 100mW
config *.**.nic.phy80211p.useNoiseFloor true
config *.**.nic.phy80211p.noiseFloor -95dBm
config *.**.nic.phy80211p.decider "xmldoc(\"config.xml\")"
config *.**.nic.phy80211p.analogueModels "xmldoc(\"config.xml\")"
config *.**.nic.phy80211p.usePropagationDelay true
config *.node[*].mobility.x 0
config *.node[*].mobility.y 0
config *.node[*].mobility.z 1.895
config seed-set 0
config **.seed 0
config *.node[*].prot.rng-0 2
config *.node[*].appl.rng-0 3
config *.node[*].scenario.rng-0 4
config **.traffic.rng-0 5
config *.manager.configFile "\"./sumocfg/freeway.sumo.cfg\""
config *.manager.launchConfig "xmldoc(\"./sumocfg/freeway.launchd.xml\")"
config **.numberOfCars 4
config **.numberOfCarsPerPlatoon 4
config **.numberOfLanes 1
config **.controllerXi 1
config **.controllerOmegaN 0.2
config *.node[*].helper_type "\"PositionHelper\""
config *.node[*].scenario.caccC1 0.5
config *.node[*].scenario.caccXi 1
config *.node[*].scenario.caccOmegaN "0.2 Hz"
config *.node[*].scenario.caccSpacing "5 m"
config *.node[*].scenario.engineTau "0.5 s"
config *.node[*].scenario.ploegH 0.5s
config *.node[*].scenario.ploegKp 0.2
config *.node[*].scenario.ploegKd 0.7
config *.node[*].scenario.useRealisticEngine false
config *.node[*].scenario.targetController "\"CACC\""
config **.numericController 0
config *.node[*].scenario.accHeadway "0.1 s"
config *.node[*].scenario.leaderHeadway 1.2s
config *.node[*].scenario.leaderSpeed 100kmph
config *.node[*].appl_type "\"GeneralPlatooningApp\""
config *.node[*].appl.*.scalar-recording true
config *.node[*].appl.*.vector-recording true
config *.node[*].appl.joinManeuver "\"JoinAtBack\""
config *.node[*].appl.mergeManeuver "\"MergeAtBack\""
config *.node[*].protocol_type "\"SimplePlatooningBeaconing\""
config *.node[*].prot.*.scalar-recording true
config *.node[*].prot.*.vector-recording true
config *.node[*].prot.beaconingInterval 0.1s
config *.node[*].prot.priority 2
config *.node[*].prot.packetSize 200
config **.traffic_type "\"JoinTrafficManager\""
config **.traffic.platoonInsertTime "1 s"
config **.traffic.platoonInsertSpeed 100kmph
config **.traffic.nCars 4
config **.traffic.platoonSize 4
config **.traffic.nLanes 1
config **.traffic.platooningVType "\"vtypeauto\""
config **.traffic.controller "\"CACC\""
config **.traffic.platoonInsertDistance "5 m"
config **.traffic.platoonInsertHeadway "0 s"
config **.traffic.platoonLeaderHeadway 1.2s
config **.scalar-recording false
config **.vector-recording false

par JoinManeuver.annotations typename "\"org.car2x.veins.modules.world.annotations.AnnotationManager\""
par JoinManeuver.annotations draw false
par JoinManeuver.annotations annotations "<annotations/> at content:1"
par JoinManeuver.connectionManager typename "\"org.car2x.veins.base.connectionManager.ConnectionManager\""
par JoinManeuver.connectionManager sendDirect true
par JoinManeuver.connectionManager maxInterfDist 2600m
attr unit m
par JoinManeuver.connectionManager drawMaxIntfDist false
par JoinManeuver.world typename "\"org.car2x.veins.base.modules.BaseWorldUtility\""
par JoinManeuver.world playgroundSizeX 65000m
attr unit m
par JoinManeuver.world playgroundSizeY 25000m
attr unit m
par JoinManeuver.world playgroundSizeZ 50m
attr unit m
par JoinManeuver.world useTorus false
par JoinManeuver.world use2D false
par JoinManeuver.manager typename "\"org.car2x.plexe.traci.PlexeScenarioManagerForker\""
par JoinManeuver.manager connectAt 0s
attr unit s
par JoinManeuver.manager firstStepAt -1s
attr unit s
par JoinManeuver.manager updateInterval 0.01s
attr unit s
par JoinManeuver.manager moduleType "\"org.car2x.plexe.PlatoonCar\""
par JoinManeuver.manager moduleName "\"node\""
par JoinManeuver.manager moduleDisplayString "\"\""
par JoinManeuver.manager trafficLightModuleType "\"\""
par JoinManeuver.manager trafficLightModuleName "\"tls\""
par JoinManeuver.manager trafficLightFilter "\"\""
par JoinManeuver.manager trafficLightModuleDisplayString "\"i=misc/node2;is=vs;r=0,,#707070,1\""
par JoinManeuver.manager host "\"localhost\""
par JoinManeuver.manager port -1
par JoinManeuver.manager seed 0
par JoinManeuver.manager autoShutdown true
par JoinManeuver.manager margin 25
par JoinManeuver.manager roiRoads "\"\""
par JoinManeuver.manager roiRects "\"\""
par JoinManeuver.manager penetrationRate 1
par JoinManeuver.manager ignoreGuiCommands true
par JoinManeuver.manager commandLine "\"$command --remote-port $port --seed $seed --configuration-file $configFile\""
par JoinManeuver.manager command "\"sumo\""
par JoinManeuver.manager configFile "\"./sumocfg/freeway.sumo.cfg\""
par JoinManeuver.manager order -1
par JoinManeuver.manager ignoreUnknownSubscriptionResults false
par JoinManeuver.plexe typename "\"org.car2x.plexe.PlexeManager\""
par JoinManeuver.traffic typename "\"org.car2x.plexe.traffic.PlatoonsTrafficManager\""
par JoinManeuver.traffic controller "\"CACC\""
par JoinManeuver.traffic platoonInsertTime 1s
attr unit s
par JoinManeuver.traffic platoonInsertSpeed 100kmph
attr unit kmph
par JoinManeuver.traffic nCars 8
par JoinManeuver.traffic platoonSize 4
par JoinManeuver.traffic nLanes 1
par JoinManeuver.traffic platooningVType "\"vtypeauto\""
par JoinManeuver.traffic platoonInsertDistance 5m
attr unit m
par JoinManeuver.traffic platoonInsertHeadway 0s
attr unit s
par JoinManeuver.traffic platoonLeaderHeadway 1.2s
attr unit s
par JoinManeuver.traffic platoonAdditionalDistance 300m
attr unit m
par JoinManeuver.node[0].helper typename "\"org.car2x.plexe.utilities.PositionHelper\""
par JoinManeuver.node[0].scenario typename "\"org.car2x.plexe.scenarios.MergeManeuverScenario\""
par JoinManeuver.node[0].scenario leaderSpeed 100kmph
attr unit kmph
par JoinManeuver.node[0].scenario accHeadway 0.1s
attr unit s
par JoinManeuver.node[0].scenario leaderHeadway 1.2s
attr unit s
par JoinManeuver.node[0].scenario caccXi 1
par JoinManeuver.node[0].scenario caccOmegaN 0.2Hz
attr unit Hz
par JoinManeuver.node[0].scenario caccC1 0.5
par JoinManeuver.node[0].scenario caccSpacing 5m
attr unit m
par JoinManeuver.node[0].scenario engineTau 0.5s
attr unit s
par JoinManeuver.node[0].scenario uMin -1e+06mpsps
attr unit mpsps
par JoinManeuver.node[0].scenario uMax 1e+06mpsps
attr unit mpsps
par JoinManeuver.node[0].scenario ploegH 0.5s
attr unit s
par JoinManeuver.node[0].scenario ploegKp 0.2
par JoinManeuver.node[0].scenario ploegKd 0.7
par JoinManeuver.node[0].scenario flatbedKa 2.4
par JoinManeuver.node[0].scenario flatbedKv 0.6
par JoinManeuver.node[0].scenario flatbedKp 12
par JoinManeuver.node[0].scenario flatbedH 4
par JoinManeuver.node[0].scenario flatbedD 5
par JoinManeuver.node[0].scenario useControllerAcceleration true
par JoinManeuver.node[0].scenario usePrediction true
par JoinManeuver.node[0].scenario vehicleFile "\"./vehicles.xml\""
par JoinManeuver.node[0].scenario useRealisticEngine false
par JoinManeuver.node[0].scenario vehicleType "\"\""
par JoinManeuver.node[0].scenario headerLength 0bit
attr unit bit
par JoinManeuver.node[0].scenario targetController "\"CACC\""
par JoinManeuver.node[0].appl typename "\"org.car2x.plexe.apps.GeneralPlatooningApp\""
par JoinManeuver.node[0].appl joinManeuver "\"JoinAtBack\""
par JoinManeuver.node[0].appl mergeManeuver "\"MergeAtBack\""
par JoinManeuver.node[0].appl headerLength 0bit
attr unit bit
par JoinManeuver.node[0].prot typename "\"org.car2x.plexe.protocols.SimplePlatooningBeaconing\""
par JoinManeuver.node[0].prot beaconingInterval 0.1seconds
attr unit seconds
par JoinManeuver.node[0].prot priority 2
par JoinManeuver.node[0].prot packetSize 200
par JoinManeuver.node[0].prot headerLength 0bit
attr unit bit
par JoinManeuver.node[0].veins11pDriver typename "\"org.car2x.plexe.driver.Veins11pRadioDriver\""
par JoinManeuver.node[0].veins11pDriver headerLength 0bit
attr unit bit
par JoinManeuver.node[0].nic.phy80211p typename "\"org.car2x.veins.modules.phy.PhyLayer80211p\""
par JoinManeuver.node[0].nic.phy80211p recordStats false
par JoinManeuver.node[0].nic.phy80211p usePropagationDelay true
par JoinManeuver.node[0].nic.phy80211p noiseFloor -95dBm
attr unit dBm
par JoinManeuver.node[0].nic.phy80211p useNoiseFloor true
par JoinManeuver.node[0].nic.phy80211p antenna "<root>...</root> at content:1"
par JoinManeuver.node[0].nic.phy80211p antennaOffsetX 0m
attr unit m
par JoinManeuver.node[0].nic.phy80211p antennaOffsetY 0m
attr unit m
par JoinManeuver.node[0].nic.phy80211p antennaOffsetZ 1.895m
attr unit m
par JoinManeuver.node[0].nic.phy80211p antennaOffsetYaw 0rad
attr unit rad
par JoinManeuver.node[0].nic.phy80211p analogueModels "<root>...</root> at /media/nsen/misc-585/omnet/plexe/examples/joinManeuver//config.xml:32"
par JoinManeuver.node[0].nic.phy80211p decider "<root>...</root> at /media/nsen/misc-585/omnet/plexe/examples/joinManeuver//config.xml:32"
par JoinManeuver.node[0].nic.phy80211p minPowerLevel -94dBm
attr unit dBm
par JoinManeuver.node[0].nic.phy80211p timeRXToTX 0s
attr unit s
par JoinManeuver.node[0].nic.phy80211p timeRXToSleep 0s
attr unit s
par JoinManeuver.node[0].nic.phy80211p timeTXToRX 0s
attr unit s
par JoinManeuver.node[0].nic.phy80211p timeTXToSleep 0s
attr unit s
par JoinManeuver.node[0].nic.phy80211p timeSleepToRX 0s
attr unit s
par JoinManeuver.node[0].nic.phy80211p timeSleepToTX 0s
attr unit s
par JoinManeuver.node[0].nic.phy80211p initialRadioState 0
par JoinManeuver.node[0].nic.phy80211p radioMinAtt 1
par JoinManeuver.node[0].nic.phy80211p radioMaxAtt 0
par JoinManeuver.node[0].nic.phy80211p nbRadioChannels 1
par JoinManeuver.node[0].nic.phy80211p initialRadioChannel 0
par JoinManeuver.node[0].nic.phy80211p ccaThreshold -65dBm
attr unit dBm
par JoinManeuver.node[0].nic.phy80211p collectCollisionStatistics false
par JoinManeuver.node[0].nic.phy80211p allowTxDuringRx false
par JoinManeuver.node[0].nic.mac1609_4 typename "\"org.car2x.veins.modules.mac.ieee80211p.Mac1609_4\""
par JoinManeuver.node[0].nic.mac1609_4 notAffectedByHostState false
par JoinManeuver.node[0].nic.mac1609_4 headerLength 0bit
attr unit bit
par JoinManeuver.node[0].nic.mac1609_4 address "\"auto\""
par JoinManeuver.node[0].nic.mac1609_4 useServiceChannel false
par JoinManeuver.node[0].nic.mac1609_4 serviceChannel 1
par JoinManeuver.node[0].nic.mac1609_4 bitrate 6000000bps
attr unit bps
par JoinManeuver.node[0].nic.mac1609_4 syncOffset 0.0003s
attr unit s
par JoinManeuver.node[0].nic.mac1609_4 txPower 100mW
attr unit mW
par JoinManeuver.node[0].nic.mac1609_4 queueSize 0
par JoinManeuver.node[0].nic.mac1609_4 dot11RTSThreshold 12000bit
attr unit bit
par JoinManeuver.node[0].nic.mac1609_4 dot11ShortRetryLimit 7
par JoinManeuver.node[0].nic.mac1609_4 dot11LongRetryLimit 4
par JoinManeuver.node[0].nic.mac1609_4 ackLength 112bit
attr unit bit
par JoinManeuver.node[0].nic.mac1609_4 useAcks true
par JoinManeuver.node[0].nic.mac1609_4 frameErrorRate 0
par JoinManeuver.node[0].nic.mac1609_4 ackErrorRate 0
par JoinManeuver.node[0].nic typename "\"org.car2x.veins.modules.nic.Nic80211p\""
par JoinManeuver.node[0].nic connectionManagerName "\"connectionManager\""
par JoinManeuver.node[0].mobility typename "\"org.car2x.veins.modules.mobility.traci.TraCIMobility\""
par JoinManeuver.node[0].mobility notAffectedByHostState true
par JoinManeuver.node[0].mobility x 0
par JoinManeuver.node[0].mobility y 0
par JoinManeuver.node[0].mobility z 1.895
par JoinManeuver.node[0].mobility xOrientation 1
par JoinManeuver.node[0].mobility yOrientation 0
par JoinManeuver.node[0].mobility zOrientation 0
par JoinManeuver.node[0].mobility hostPositionOffset 0m
attr unit m
par JoinManeuver.node[0].mobility setHostSpeed false
par JoinManeuver.node[0].mobility accidentCount 0
par JoinManeuver.node[0].mobility accidentStart 46.4644s
attr unit s
par JoinManeuver.node[0].mobility accidentDuration "uniform(30s, 60s)"
attr unit s
par JoinManeuver.node[0].mobility accidentInterval "uniform(30s, 60s)"
attr unit s
par JoinManeuver.node[0] typename "\"org.car2x.plexe.PlatoonCar\""
par JoinManeuver.node[0] scenario_type "\"MergeManeuverScenario\""
par JoinManeuver.node[0] helper_type "\"PositionHelper\""
par JoinManeuver.node[0] appl_type "\"GeneralPlatooningApp\""
par JoinManeuver.node[0] protocol_type "\"SimplePlatooningBeaconing\""
par JoinManeuver.node[1].helper typename "\"org.car2x.plexe.utilities.PositionHelper\""
par JoinManeuver.node[1].scenario typename "\"org.car2x.plexe.scenarios.MergeManeuverScenario\""
par JoinManeuver.node[1].scenario leaderSpeed 100kmph
attr unit kmph
par JoinManeuver.node[1].scenario accHeadway 0.1s
attr unit s
par JoinManeuver.node[1].scenario leaderHeadway 1.2s
attr unit s
par JoinManeuver.node[1].scenario caccXi 1
par JoinManeuver.node[1].scenario caccOmegaN 0.2Hz
attr unit Hz
par JoinManeuver.node[1].scenario caccC1 0.5
par JoinManeuver.node[1].scenario caccSpacing 5m
attr unit m
par JoinManeuver.node[1].scenario engineTau 0.5s
attr unit s
par JoinManeuver.node[1].scenario uMin -1e+06mpsps
attr unit mpsps
par JoinManeuver.node[1].scenario uMax 1e+06mpsps
attr unit mpsps
par JoinManeuver.node[1].scenario ploegH 0.5s
attr unit s
par JoinManeuver.node[1].scenario ploegKp 0.2
par JoinManeuver.node[1].scenario ploegKd 0.7
par JoinManeuver.node[1].scenario flatbedKa 2.4
par JoinManeuver.node[1].scenario flatbedKv 0.6
par JoinManeuver.node[1].scenario flatbedKp 12
par JoinManeuver.node[1].scenario flatbedH 4
par JoinManeuver.node[1].scenario flatbedD 5
par JoinManeuver.node[1].scenario useControllerAcceleration true
par JoinManeuver.node[1].scenario usePrediction true
par JoinManeuver.node[1].scenario vehicleFile "\"./vehicles.xml\""
par JoinManeuver.node[1].scenario useRealisticEngine false
par JoinManeuver.node[1].scenario vehicleType "\"\""
par JoinManeuver.node[1].scenario headerLength 0bit
attr unit bit
par JoinManeuver.node[1].scenario targetController "\"CACC\""
par JoinManeuver.node[1].appl typename "\"org.car2x.plexe.apps.GeneralPlatooningApp\""
par JoinManeuver.node[1].appl joinManeuver "\"JoinAtBack\""
par JoinManeuver.node[1].appl mergeManeuver "\"MergeAtBack\""
par JoinManeuver.node[1].appl headerLength 0bit
attr unit bit
par JoinManeuver.node[1].prot typename "\"org.car2x.plexe.protocols.SimplePlatooningBeaconing\""
par JoinManeuver.node[1].prot beaconingInterval 0.1seconds
attr unit seconds
par JoinManeuver.node[1].prot priority 2
par JoinManeuver.node[1].prot packetSize 200
par JoinManeuver.node[1].prot headerLength 0bit
attr unit bit
par JoinManeuver.node[1].veins11pDriver typename "\"org.car2x.plexe.driver.Veins11pRadioDriver\""
par JoinManeuver.node[1].veins11pDriver headerLength 0bit
attr unit bit
par JoinManeuver.node[1].nic.phy80211p typename "\"org.car2x.veins.modules.phy.PhyLayer80211p\""
par JoinManeuver.node[1].nic.phy80211p recordStats false
par JoinManeuver.node[1].nic.phy80211p usePropagationDelay true
par JoinManeuver.node[1].nic.phy80211p noiseFloor -95dBm
attr unit dBm
par JoinManeuver.node[1].nic.phy80211p useNoiseFloor true
par JoinManeuver.node[1].nic.phy80211p antenna "<root>...</root> at content:1"
par JoinManeuver.node[1].nic.phy80211p antennaOffsetX 0m
attr unit m
par JoinManeuver.node[1].nic.phy80211p antennaOffsetY 0m
attr unit m
par JoinManeuver.node[1].nic.phy80211p antennaOffsetZ 1.895m
attr unit m
par JoinManeuver.node[1].nic.phy80211p antennaOffsetYaw 0rad
attr unit rad
par JoinManeuver.node[1].nic.phy80211p analogueModels "<root>...</root> at /media/nsen/misc-585/omnet/plexe/examples/joinManeuver//config.xml:32"
par JoinManeuver.node[1].nic.phy80211p decider "<root>...</root> at /media/nsen/misc-585/omnet/plexe/examples/joinManeuver//config.xml:32"
par JoinManeuver.node[1].nic.phy80211p minPowerLevel -94dBm
attr unit dBm
par JoinManeuver.node[1].nic.phy80211p timeRXToTX 0s
attr unit s
par JoinManeuver.node[1].nic.phy80211p timeRXToSleep 0s
attr unit s
par JoinManeuver.node[1].nic.phy80211p timeTXToRX 0s
attr unit s
par JoinManeuver.node[1].nic.phy80211p timeTXToSleep 0s
attr unit s
par JoinManeuver.node[1].nic.phy80211p timeSleepToRX 0s
attr unit s
par JoinManeuver.node[1].nic.phy80211p timeSleepToTX 0s
attr unit s
par JoinManeuver.node[1].nic.phy80211p initialRadioState 0
par JoinManeuver.node[1].nic.phy80211p radioMinAtt 1
par JoinManeuver.node[1].nic.phy80211p radioMaxAtt 0
par JoinManeuver.node[1].nic.phy80211p nbRadioChannels 1
par JoinManeuver.node[1].nic.phy80211p initialRadioChannel 0
par JoinManeuver.node[1].nic.phy80211p ccaThreshold -65dBm
attr unit dBm
par JoinManeuver.node[1].nic.phy80211p collectCollisionStatistics false
par JoinManeuver.node[1].nic.phy80211p allowTxDuringRx false
par JoinManeuver.node[1].nic.mac1609_4 typename "\"org.car2x.veins.modules.mac.ieee80211p.Mac1609_4\""
par JoinManeuver.node[1].nic.mac1609_4 notAffectedByHostState false
par JoinManeuver.node[1].nic.mac1609_4 headerLength 0bit
attr unit bit
par JoinManeuver.node[1].nic.mac1609_4 address "\"auto\""
par JoinManeuver.node[1].nic.mac1609_4 useServiceChannel false
par JoinManeuver.node[1].nic.mac1609_4 serviceChannel 1
par JoinManeuver.node[1].nic.mac1609_4 bitrate 6000000bps
attr unit bps
par JoinManeuver.node[1].nic.mac1609_4 syncOffset 0.0003s
attr unit s
par JoinManeuver.node[1].nic.mac1609_4 txPower 100mW
attr unit mW
par JoinManeuver.node[1].nic.mac1609_4 queueSize 0
par JoinManeuver.node[1].nic.mac1609_4 dot11RTSThreshold 12000bit
attr unit bit
par JoinManeuver.node[1].nic.mac1609_4 dot11ShortRetryLimit 7
par JoinManeuver.node[1].nic.mac1609_4 dot11LongRetryLimit 4
par JoinManeuver.node[1].nic.mac1609_4 ackLength 112bit
attr unit bit
par JoinManeuver.node[1].nic.mac1609_4 useAcks true
par JoinManeuver.node[1].nic.mac1609_4 frameErrorRate 0
par JoinManeuver.node[1].nic.mac1609_4 ackErrorRate 0
par JoinManeuver.node[1].nic typename "\"org.car2x.veins.modules.nic.Nic80211p\""
par JoinManeuver.node[1].nic connectionManagerName "\"connectionManager\""
par JoinManeuver.node[1].mobility typename "\"org.car2x.veins.modules.mobility.traci.TraCIMobility\""
par JoinManeuver.node[1].mobility notAffectedByHostState true
par JoinManeuver.node[1].mobility x 0
par JoinManeuver.node[1].mobility y 0
par JoinManeuver.node[1].mobility z 1.895
par JoinManeuver.node[1].mobility xOrientation 1
par JoinManeuver.node[1].mobility yOrientation 0
par JoinManeuver.node[1].mobility zOrientation 0
par JoinManeuver.node[1].mobility hostPositionOffset 0m
attr unit m
par JoinManeuver.node[1].mobility setHostSpeed false
par JoinManeuver.node[1].mobility accidentCount 0
par JoinManeuver.node[1].mobility accidentStart 48.0829s
attr unit s
par JoinManeuver.node[1].mobility accidentDuration "uniform(30s, 60s)"
attr unit s
par JoinManeuver.node[1].mobility accidentInterval "uniform(30s, 60s)"
attr unit s
par JoinManeuver.node[1] typename "\"org.car2x.plexe.PlatoonCar\""
par JoinManeuver.node[1] scenario_type "\"MergeManeuverScenario\""
par JoinManeuver.node[1] helper_type "\"PositionHelper\""
par JoinManeuver.node[1] appl_type "\"GeneralPlatooningApp\""
par JoinManeuver.node[1] protocol_type "\"SimplePlatooningBeaconing\""
par JoinManeuver.node[2].helper typename "\"org.car2x.plexe.utilities.PositionHelper\""
par JoinManeuver.node[2].scenario typename "\"org.car2x.plexe.scenarios.MergeManeuverScenario\""
par JoinManeuver.node[2].scenario leaderSpeed 100kmph
attr unit kmph
par JoinManeuver.node[2].scenario accHeadway 0.1s
attr unit s
par JoinManeuver.node[2].scenario leaderHeadway 1.2s
attr unit s
par JoinManeuver.node[2].scenario caccXi 1
par JoinManeuver.node[2].scenario caccOmegaN 0.2Hz
attr unit Hz
par JoinManeuver.node[2].scenario caccC1 0.5
par JoinManeuver.node[2].scenario caccSpacing 5m
attr unit m
par JoinManeuver.node[2].scenario engineTau 0.5s
attr unit s
par JoinManeuver.node[2].scenario uMin -1e+06mpsps
attr unit mpsps
par JoinManeuver.node[2].scenario uMax 1e+06mpsps
attr unit mpsps
par JoinManeuver.node[2].scenario ploegH 0.5s
attr unit s
par JoinManeuver.node[2].scenario ploegKp 0.2
par JoinManeuver.node[2].scenario ploegKd 0.7
par JoinManeuver.node[2].scenario flatbedKa 2.4
par JoinManeuver.node[2].scenario flatbedKv 0.6
par JoinManeuver.node[2].scenario flatbedKp 12
par JoinManeuver.node[2].scenario flatbedH 4
par JoinManeuver.node[2].scenario flatbedD 5
par JoinManeuver.node[2].scenario useControllerAcceleration true
par JoinManeuver.node[2].scenario usePrediction true
par JoinManeuver.node[2].scenario vehicleFile "\"./vehicles.xml\""
par JoinManeuver.node[2].scenario useRealisticEngine false
par JoinManeuver.node[2].scenario vehicleType "\"\""
par JoinManeuver.node[2].scenario headerLength 0bit
attr unit bit
par JoinManeuver.node[2].scenario targetController "\"CACC\""
par JoinManeuver.node[2].appl typename "\"org.car2x.plexe.apps.GeneralPlatooningApp\""
par JoinManeuver.node[2].appl joinManeuver "\"JoinAtBack\""
par JoinManeuver.node[2].appl mergeManeuver "\"MergeAtBack\""
par JoinManeuver.node[2].appl headerLength 0bit
attr unit bit
par JoinManeuver.node[2].prot typename "\"org.car2x.plexe.protocols.SimplePlatooningBeaconing\""
par JoinManeuver.node[2].prot beaconingInterval 0.1seconds
attr unit seconds
par JoinManeuver.node[2].prot priority 2
par JoinManeuver.node[2].prot packetSize 200
par JoinManeuver.node[2].prot headerLength 0bit
attr unit bit
par JoinManeuver.node[2].veins11pDriver typename "\"org.car2x.plexe.driver.Veins11pRadioDriver\""
par JoinManeuver.node[2].veins11pDriver headerLength 0bit
attr unit bit
par JoinManeuver.node[2].nic.phy80211p typename "\"org.car2x.veins.modules.phy.PhyLayer80211p\""
par JoinManeuver.node[2].nic.phy80211p recordStats false
par JoinManeuver.node[2].nic.phy80211p usePropagationDelay true
par JoinManeuver.node[2].nic.phy80211p noiseFloor -95dBm
attr unit dBm
par JoinManeuver.node[2].nic.phy80211p useNoiseFloor true
par JoinManeuver.node[2].nic.phy80211p antenna "<root>...</root> at content:1"
par JoinManeuver.node[2].nic.phy80211p antennaOffsetX 0m
attr unit m
par JoinManeuver.node[2].nic.phy80211p antennaOffsetY 0m
attr unit m
par JoinManeuver.node[2].nic.phy80211p antennaOffsetZ 1.895m
attr unit m
par JoinManeuver.node[2].nic.phy80211p antennaOffsetYaw 0rad
attr unit rad
par JoinManeuver.node[2].nic.phy80211p analogueModels "<root>...</root> at /media/nsen/misc-585/omnet/plexe/examples/joinManeuver//config.xml:32"
par JoinManeuver.node[2].nic.phy80211p decider "<root>...</root> at /media/nsen/misc-585/omnet/plexe/examples/joinManeuver//config.xml:32"
par JoinManeuver.node[2].nic.phy80211p minPowerLevel -94dBm
attr unit dBm
par JoinManeuver.node[2].nic.phy80211p timeRXToTX 0s
attr unit s
par JoinManeuver.node[2].nic.phy80211p timeRXToSleep 0s
attr unit s
par JoinManeuver.node[2].nic.phy80211p timeTXToRX 0s
attr unit s
par JoinManeuver.node[2].nic.phy80211p timeTXToSleep 0s
attr unit s
par JoinManeuver.node[2].nic.phy80211p timeSleepToRX 0s
attr unit s
par JoinManeuver.node[2].nic.phy80211p timeSleepToTX 0s
attr unit s
par JoinManeuver.node[2].nic.phy80211p initialRadioState 0
par JoinManeuver.node[2].nic.phy80211p radioMinAtt 1
par JoinManeuver.node[2].nic.phy80211p radioMaxAtt 0
par JoinManeuver.node[2].nic.phy80211p nbRadioChannels 1
par JoinManeuver.node[2].nic.phy80211p initialRadioChannel 0
par JoinManeuver.node[2].nic.phy80211p ccaThreshold -65dBm
attr unit dBm
par JoinManeuver.node[2].nic.phy80211p collectCollisionStatistics false
par JoinManeuver.node[2].nic.phy80211p allowTxDuringRx false
par JoinManeuver.node[2].nic.mac1609_4 typename "\"org.car2x.veins.modules.mac.ieee80211p.Mac1609_4\""
par JoinManeuver.node[2].nic.mac1609_4 notAffectedByHostState false
par JoinManeuver.node[2].nic.mac1609_4 headerLength 0bit
attr unit bit
par JoinManeuver.node[2].nic.mac1609_4 address "\"auto\""
par JoinManeuver.node[2].nic.mac1609_4 useServiceChannel false
par JoinManeuver.node[2].nic.mac1609_4 serviceChannel 1
par JoinManeuver.node[2].nic.mac1609_4 bitrate 6000000bps
attr unit bps
par JoinManeuver.node[2].nic.mac1609_4 syncOffset 0.0003s
attr unit s
par JoinManeuver.node[2].nic.mac1609_4 txPower 100mW
attr unit mW
par JoinManeuver.node[2].nic.mac1609_4 queueSize 0
par JoinManeuver.node[2].nic.mac1609_4 dot11RTSThreshold 12000bit
attr unit bit
par JoinManeuver.node[2].nic.mac1609_4 dot11ShortRetryLimit 7
par JoinManeuver.node[2].nic.mac1609_4 dot11LongRetryLimit 4
par JoinManeuver.node[2].nic.mac1609_4 ackLength 112bit
attr unit bit
par JoinManeuver.node[2].nic.mac1609_4 useAcks true
par JoinManeuver.node[2].nic.mac1609_4 frameErrorRate 0
par JoinManeuver.node[2].nic.mac1609_4 ackErrorRate 0
par JoinManeuver.node[2].nic typename "\"org.car2x.veins.modules.nic.Nic80211p\""
par JoinManeuver.node[2].nic connectionManagerName "\"connectionManager\""
par JoinManeuver.node[2].mobility typename "\"org.car2x.veins.modules.mobility.traci.TraCIMobility\""
par JoinManeuver.node[2].mobility notAffectedByHostState true
par JoinManeuver.node[2].mobility x 0
par JoinManeuver.node[2].mobility y 0
par JoinManeuver.node[2].mobility z 1.895
par JoinManeuver.node[2].mobility xOrientation 1
par JoinManeuver.node[2].mobility yOrientation 0
par JoinManeuver.node[2].mobility zOrientation 0
par JoinManeuver.node[2].mobility hostPositionOffset 0m
attr unit m
par JoinManeuver.node[2].mobility setHostSpeed false
par JoinManeuver.node[2].mobility accidentCount 0
par JoinManeuver.node[2].mobility accidentStart 42.7096s
attr unit s
par JoinManeuver.node[2].mobility accidentDuration "uniform(30s, 60s)"
attr unit s
par JoinManeuver.node[2].mobility accidentInterval "uniform(30s, 60s)"
attr unit s
par JoinManeuver.node[2] typename "\"org.car2x.plexe.PlatoonCar\""
par JoinManeuver.node[2] scenario_type "\"MergeManeuverScenario\""
par JoinManeuver.node[2] helper_type "\"PositionHelper\""
par JoinManeuver.node[2] appl_type "\"GeneralPlatooningApp\""
par JoinManeuver.node[2] protocol_type "\"SimplePlatooningBeaconing\""
par JoinManeuver.node[3].helper typename "\"org.car2x.plexe.utilities.PositionHelper\""
par JoinManeuver.node[3].scenario typename "\"org.car2x.plexe.scenarios.MergeManeuverScenario\""
par JoinManeuver.node[3].scenario leaderSpeed 100kmph
attr unit kmph
par JoinManeuver.node[3].scenario accHeadway 0.1s
attr unit s
par JoinManeuver.node[3].scenario leaderHeadway 1.2s
attr unit s
par JoinManeuver.node[3].scenario caccXi 1
par JoinManeuver.node[3].scenario caccOmegaN 0.2Hz
attr unit Hz
par JoinManeuver.node[3].scenario caccC1 0.5
par JoinManeuver.node[3].scenario caccSpacing 5m
attr unit m
par JoinManeuver.node[3].scenario engineTau 0.5s
attr unit s
par JoinManeuver.node[3].scenario uMin -1e+06mpsps
attr unit mpsps
par JoinManeuver.node[3].scenario uMax 1e+06mpsps
attr unit mpsps
par JoinManeuver.node[3].scenario ploegH 0.5s
attr unit s
par JoinManeuver.node[3].scenario ploegKp 0.2
par JoinManeuver.node[3].scenario ploegKd 0.7
par JoinManeuver.node[3].scenario flatbedKa 2.4
par JoinManeuver.node[3].scenario flatbedKv 0.6
par JoinManeuver.node[3].scenario flatbedKp 12
par JoinManeuver.node[3].scenario flatbedH 4
par JoinManeuver.node[3].scenario flatbedD 5
par JoinManeuver.node[3].scenario useControllerAcceleration true
par JoinManeuver.node[3].scenario usePrediction true
par JoinManeuver.node[3].scenario vehicleFile "\"./vehicles.xml\""
par JoinManeuver.node[3].scenario useRealisticEngine false
par JoinManeuver.node[3].scenario vehicleType "\"\""
par JoinManeuver.node[3].scenario headerLength 0bit
attr unit bit
par JoinManeuver.node[3].scenario targetController "\"CACC\""
par JoinManeuver.node[3].appl typename "\"org.car2x.plexe.apps.GeneralPlatooningApp\""
par JoinManeuver.node[3].appl joinManeuver "\"JoinAtBack\""
par JoinManeuver.node[3].appl mergeManeuver "\"MergeAtBack\""
par JoinManeuver.node[3].appl headerLength 0bit
attr unit bit
par JoinManeuver.node[3].prot typename "\"org.car2x.plexe.protocols.SimplePlatooningBeaconing\""
par JoinManeuver.node[3].prot beaconingInterval 0.1seconds
attr unit seconds
par JoinManeuver.node[3].prot priority 2
par JoinManeuver.node[3].prot packetSize 200
par JoinManeuver.node[3].prot headerLength 0bit
attr unit bit
par JoinManeuver.node[3].veins11pDriver typename "\"org.car2x.plexe.driver.Veins11pRadioDriver\""
par JoinManeuver.node[3].veins11pDriver headerLength 0bit
attr unit bit
par JoinManeuver.node[3].nic.phy80211p typename "\"org.car2x.veins.modules.phy.PhyLayer80211p\""
par JoinManeuver.node[3].nic.phy80211p recordStats false
par JoinManeuver.node[3].nic.phy80211p usePropagationDelay true
par JoinManeuver.node[3].nic.phy80211p noiseFloor -95dBm
attr unit dBm
par JoinManeuver.node[3].nic.phy80211p useNoiseFloor true
par JoinManeuver.node[3].nic.phy80211p antenna "<root>...</root> at content:1"
par JoinManeuver.node[3].nic.phy80211p antennaOffsetX 0m
attr unit m
par JoinManeuver.node[3].nic.phy80211p antennaOffsetY 0m
attr unit m
par JoinManeuver.node[3].nic.phy80211p antennaOffsetZ 1.895m
attr unit m
par JoinManeuver.node[3].nic.phy80211p antennaOffsetYaw 0rad
attr unit rad
par JoinManeuver.node[3].nic.phy80211p analogueModels "<root>...</root> at /media/nsen/misc-585/omnet/plexe/examples/joinManeuver//config.xml:32"
par JoinManeuver.node[3].nic.phy80211p decider "<root>...</root> at /media/nsen/misc-585/omnet/plexe/examples/joinManeuver//config.xml:32"
par JoinManeuver.node[3].nic.phy80211p minPowerLevel -94dBm
attr unit dBm
par JoinManeuver.node[3].nic.phy80211p timeRXToTX 0s
attr unit s
par JoinManeuver.node[3].nic.phy80211p timeRXToSleep 0s
attr unit s
par JoinManeuver.node[3].nic.phy80211p timeTXToRX 0s
attr unit s
par JoinManeuver.node[3].nic.phy80211p timeTXToSleep 0s
attr unit s
par JoinManeuver.node[3].nic.phy80211p timeSleepToRX 0s
attr unit s
par JoinManeuver.node[3].nic.phy80211p timeSleepToTX 0s
attr unit s
par JoinManeuver.node[3].nic.phy80211p initialRadioState 0
par JoinManeuver.node[3].nic.phy80211p radioMinAtt 1
par JoinManeuver.node[3].nic.phy80211p radioMaxAtt 0
par JoinManeuver.node[3].nic.phy80211p nbRadioChannels 1
par JoinManeuver.node[3].nic.phy80211p initialRadioChannel 0
par JoinManeuver.node[3].nic.phy80211p ccaThreshold -65dBm
attr unit dBm
par JoinManeuver.node[3].nic.phy80211p collectCollisionStatistics false
par JoinManeuver.node[3].nic.phy80211p allowTxDuringRx false
par JoinManeuver.node[3].nic.mac1609_4 typename "\"org.car2x.veins.modules.mac.ieee80211p.Mac1609_4\""
par JoinManeuver.node[3].nic.mac1609_4 notAffectedByHostState false
par JoinManeuver.node[3].nic.mac1609_4 headerLength 0bit
attr unit bit
par JoinManeuver.node[3].nic.mac1609_4 address "\"auto\""
par JoinManeuver.node[3].nic.mac1609_4 useServiceChannel false
par JoinManeuver.node[3].nic.mac1609_4 serviceChannel 1
par JoinManeuver.node[3].nic.mac1609_4 bitrate 6000000bps
attr unit bps
par JoinManeuver.node[3].nic.mac1609_4 syncOffset 0.0003s
attr unit s
par JoinManeuver.node[3].nic.mac1609_4 txPower 100mW
attr unit mW
par JoinManeuver.node[3].nic.mac1609_4 queueSize 0
par JoinManeuver.node[3].nic.mac1609_4 dot11RTSThreshold 12000bit
attr unit bit
par JoinManeuver.node[3].nic.mac1609_4 dot11ShortRetryLimit 7
par JoinManeuver.node[3].nic.mac1609_4 dot11LongRetryLimit 4
par JoinManeuver.node[3].nic.mac1609_4 ackLength 112bit
attr unit bit
par JoinManeuver.node[3].nic.mac1609_4 useAcks true
par JoinManeuver.node[3].nic.mac1609_4 frameErrorRate 0
par JoinManeuver.node[3].nic.mac1609_4 ackErrorRate 0
par JoinManeuver.node[3].nic typename "\"org.car2x.veins.modules.nic.Nic80211p\""
par JoinManeuver.node[3].nic connectionManagerName "\"connectionManager\""
par JoinManeuver.node[3].mobility typename "\"org.car2x.veins.modules.mobility.traci.TraCIMobility\""
par JoinManeuver.node[3].mobility notAffectedByHostState true
par JoinManeuver.node[3].mobility x 0
par JoinManeuver.node[3].mobility y 0
par JoinManeuver.node[3].mobility z 1.895
par JoinManeuver.node[3].mobility xOrientation 1
par JoinManeuver.node[3].mobility yOrientation 0
par JoinManeuver.node[3].mobility zOrientation 0
par JoinManeuver.node[3].mobility hostPositionOffset 0m
attr unit m
par JoinManeuver.node[3].mobility setHostSpeed false
par JoinManeuver.node[3].mobility accidentCount 0
par JoinManeuver.node[3].mobility accidentStart 43.1276s
attr unit s
par JoinManeuver.node[3].mobility accidentDuration "uniform(30s, 60s)"
attr unit s
par JoinManeuver.node[3].mobility accidentInterval "uniform(30s, 60s)"
attr unit s
par JoinManeuver.node[3] typename "\"org.car2x.plexe.PlatoonCar\""
par JoinManeuver.node[3] scenario_type "\"MergeManeuverScenario\""
par JoinManeuver.node[3] helper_type "\"PositionHelper\""
par JoinManeuver.node[3] appl_type "\"GeneralPlatooningApp\""
par JoinManeuver.node[3] protocol_type "\"SimplePlatooningBeaconing\""
par JoinManeuver.node[4].helper typename "\"org.car2x.plexe.utilities.PositionHelper\""
par JoinManeuver.node[4].scenario typename "\"org.car2x.plexe.scenarios.MergeManeuverScenario\""
par JoinManeuver.node[4].scenario leaderSpeed 100kmph
attr unit kmph
par JoinManeuver.node[4].scenario accHeadway 0.1s
attr unit s
par JoinManeuver.node[4].scenario leaderHeadway 1.2s
attr unit s
par JoinManeuver.node[4].scenario caccXi 1
par JoinManeuver.node[4].scenario caccOmegaN 0.2Hz
attr unit Hz
par JoinManeuver.node[4].scenario caccC1 0.5
par JoinManeuver.node[4].scenario caccSpacing 5m
attr unit m
par JoinManeuver.node[4].scenario engineTau 0.5s
attr unit s
par JoinManeuver.node[4].scenario uMin -1e+06mpsps
attr unit mpsps
par JoinManeuver.node[4].scenario uMax 1e+06mpsps
attr unit mpsps
par JoinManeuver.node[4].scenario ploegH 0.5s
attr unit s
par JoinManeuver.node[4].scenario ploegKp 0.2
par JoinManeuver.node[4].scenario ploegKd 0.7
par JoinManeuver.node[4].scenario flatbedKa 2.4
par JoinManeuver.node[4].scenario flatbedKv 0.6
par JoinManeuver.node[4].scenario flatbedKp 12
par JoinManeuver.node[4].scenario flatbedH 4
par JoinManeuver.node[4].scenario flatbedD 5
par JoinManeuver.node[4].scenario useControllerAcceleration true
par JoinManeuver.node[4].scenario usePrediction true
par JoinManeuver.node[4].scenario vehicleFile "\"./vehicles.xml\""
par JoinManeuver.node[4].scenario useRealisticEngine false
par JoinManeuver.node[4].scenario vehicleType "\"\""
par JoinManeuver.node[4].scenario headerLength 0bit
attr unit bit
par JoinManeuver.node[4].scenario targetController "\"CACC\""
par JoinManeuver.node[4].appl typename "\"org.car2x.plexe.apps.GeneralPlatooningApp\""
par JoinManeuver.node[4].appl joinManeuver "\"JoinAtBack\""
par JoinManeuver.node[4].appl mergeManeuver "\"MergeAtBack\""
par JoinManeuver.node[4].appl headerLength 0bit
attr unit bit
par JoinManeuver.node[4].prot typename "\"org.car2x.plexe.protocols.SimplePlatooningBeaconing\""
par JoinManeuver.node[4].prot beaconingInterval 0.1seconds
attr unit seconds
par JoinManeuver.node[4].prot priority 2
par JoinManeuver.node[4].prot packetSize 200
par JoinManeuver.node[4].prot headerLength 0bit
attr unit bit
par JoinManeuver.node[4].veins11pDriver typename "\"org.car2x.plexe.driver.Veins11pRadioDriver\""
par JoinManeuver.node[4].veins11pDriver headerLength 0bit
attr unit bit
par JoinManeuver.node[4].nic.phy80211p typename "\"org.car2x.veins.modules.phy.PhyLayer80211p\""
par JoinManeuver.node[4].nic.phy80211p recordStats false
par JoinManeuver.node[4].nic.phy80211p usePropagationDelay true
par JoinManeuver.node[4].nic.phy80211p noiseFloor -95dBm
attr unit dBm
par JoinManeuver.node[4].nic.phy80211p useNoiseFloor true
par JoinManeuver.node[4].nic.phy80211p antenna "<root>...</root> at content:1"
par JoinManeuver.node[4].nic.phy80211p antennaOffsetX 0m
attr unit m
par JoinManeuver.node[4].nic.phy80211p antennaOffsetY 0m
attr unit m
par JoinManeuver.node[4].nic.phy80211p antennaOffsetZ 1.895m
attr unit m
par JoinManeuver.node[4].nic.phy80211p antennaOffsetYaw 0rad
attr unit rad
par JoinManeuver.node[4].nic.phy80211p analogueModels "<root>...</root> at /media/nsen/misc-585/omnet/plexe/examples/joinManeuver//config.xml:32"
par JoinManeuver.node[4].nic.phy80211p decider "<root>...</root> at /media/nsen/misc-585/omnet/plexe/examples/joinManeuver//config.xml:32"
par JoinManeuver.node[4].nic.phy80211p minPowerLevel -94dBm
attr unit dBm
par JoinManeuver.node[4].nic.phy80211p timeRXToTX 0s
attr unit s
par JoinManeuver.node[4].nic.phy80211p timeRXToSleep 0s
attr unit s
par JoinManeuver.node[4].nic.phy80211p timeTXToRX 0s
attr unit s
par JoinManeuver.node[4].nic.phy80211p timeTXToSleep 0s
attr unit s
par JoinManeuver.node[4].nic.phy80211p timeSleepToRX 0s
attr unit s
par JoinManeuver.node[4].nic.phy80211p timeSleepToTX 0s
attr unit s
par JoinManeuver.node[4].nic.phy80211p initialRadioState 0
par JoinManeuver.node[4].nic.phy80211p radioMinAtt 1
par JoinManeuver.node[4].nic.phy80211p radioMaxAtt 0
par JoinManeuver.node[4].nic.phy80211p nbRadioChannels 1
par JoinManeuver.node[4].nic.phy80211p initialRadioChannel 0
par JoinManeuver.node[4].nic.phy80211p ccaThreshold -65dBm
attr unit dBm
par JoinManeuver.node[4].nic.phy80211p collectCollisionStatistics false
par JoinManeuver.node[4].nic.phy80211p allowTxDuringRx false
par JoinManeuver.node[4].nic.mac1609_4 typename "\"org.car2x.veins.modules.mac.ieee80211p.Mac1609_4\""
par JoinManeuver.node[4].nic.mac1609_4 notAffectedByHostState false
par JoinManeuver.node[4].nic.mac1609_4 headerLength 0bit
attr unit bit
par JoinManeuver.node[4].nic.mac1609_4 address "\"auto\""
par JoinManeuver.node[4].nic.mac1609_4 useServiceChannel false
par JoinManeuver.node[4].nic.mac1609_4 serviceChannel 1
par JoinManeuver.node[4].nic.mac1609_4 bitrate 6000000bps
attr unit bps
par JoinManeuver.node[4].nic.mac1609_4 syncOffset 0.0003s
attr unit s
par JoinManeuver.node[4].nic.mac1609_4 txPower 100mW
attr unit mW
par JoinManeuver.node[4].nic.mac1609_4 queueSize 0
par JoinManeuver.node[4].nic.mac1609_4 dot11RTSThreshold 12000bit
attr unit bit
par JoinManeuver.node[4].nic.mac1609_4 dot11ShortRetryLimit 7
par JoinManeuver.node[4].nic.mac1609_4 dot11LongRetryLimit 4
par JoinManeuver.node[4].nic.mac1609_4 ackLength 112bit
attr unit bit
par JoinManeuver.node[4].nic.mac1609_4 useAcks true
par JoinManeuver.node[4].nic.mac1609_4 frameErrorRate 0
par JoinManeuver.node[4].nic.mac1609_4 ackErrorRate 0
par JoinManeuver.node[4].nic typename "\"org.car2x.veins.modules.nic.Nic80211p\""
par JoinManeuver.node[4].nic connectionManagerName "\"connectionManager\""
par JoinManeuver.node[4].mobility typename "\"org.car2x.veins.modules.mobility.traci.TraCIMobility\""
par JoinManeuver.node[4].mobility notAffectedByHostState true
par JoinManeuver.node[4].mobility x 0
par JoinManeuver.node[4].mobility y 0
par JoinManeuver.node[4].mobility z 1.895
par JoinManeuver.node[4].mobility xOrientation 1
par JoinManeuver.node[4].mobility yOrientation 0
par JoinManeuver.node[4].mobility zOrientation 0
par JoinManeuver.node[4].mobility hostPositionOffset 0m
attr unit m
par JoinManeuver.node[4].mobility setHostSpeed false
par JoinManeuver.node[4].mobility accidentCount 0
par JoinManeuver.node[4].mobility accidentStart 58.9099s
attr unit s
par JoinManeuver.node[4].mobility accidentDuration "uniform(30s, 60s)"
attr unit s
par JoinManeuver.node[4].mobility accidentInterval "uniform(30s, 60s)"
attr unit s
par JoinManeuver.node[4] typename "\"org.car2x.plexe.PlatoonCar\""
par JoinManeuver.node[4] scenario_type "\"MergeManeuverScenario\""
par JoinManeuver.node[4] helper_type "\"PositionHelper\""
par JoinManeuver.node[4] appl_type "\"GeneralPlatooningApp\""
par JoinManeuver.node[4] protocol_type "\"SimplePlatooningBeaconing\""
par JoinManeuver.node[5].helper typename "\"org.car2x.plexe.utilities.PositionHelper\""
par JoinManeuver.node[5].scenario typename "\"org.car2x.plexe.scenarios.MergeManeuverScenario\""
par JoinManeuver.node[5].scenario leaderSpeed 100kmph
attr unit kmph
par JoinManeuver.node[5].scenario accHeadway 0.1s
attr unit s
par JoinManeuver.node[5].scenario leaderHeadway 1.2s
attr unit s
par JoinManeuver.node[5].scenario caccXi 1
par JoinManeuver.node[5].scenario caccOmegaN 0.2Hz
attr unit Hz
par JoinManeuver.node[5].scenario caccC1 0.5
par JoinManeuver.node[5].scenario caccSpacing 5m
attr unit m
par JoinManeuver.node[5].scenario engineTau 0.5s
attr unit s
par JoinManeuver.node[5].scenario uMin -1e+06mpsps
attr unit mpsps
par JoinManeuver.node[5].scenario uMax 1e+06mpsps
attr unit mpsps
par JoinManeuver.node[5].scenario ploegH 0.5s
attr unit s
par JoinManeuver.node[5].scenario ploegKp 0.2
par JoinManeuver.node[5].scenario ploegKd 0.7
par JoinManeuver.node[5].scenario flatbedKa 2.4
par JoinManeuver.node[5].scenario flatbedKv 0.6
par JoinManeuver.node[5].scenario flatbedKp 12
par JoinManeuver.node[5].scenario flatbedH 4
par JoinManeuver.node[5].scenario flatbedD 5
par JoinManeuver.node[5].scenario useControllerAcceleration true
par JoinManeuver.node[5].scenario usePrediction true
par JoinManeuver.node[5].scenario vehicleFile "\"./vehicles.xml\""
par JoinManeuver.node[5].scenario useRealisticEngine false
par JoinManeuver.node[5].scenario vehicleType "\"\""
par JoinManeuver.node[5].scenario headerLength 0bit
attr unit bit
par JoinManeuver.node[5].scenario targetController "\"CACC\""
par JoinManeuver.node[5].appl typename "\"org.car2x.plexe.apps.GeneralPlatooningApp\""
par JoinManeuver.node[5].appl joinManeuver "\"JoinAtBack\""
par JoinManeuver.node[5].appl mergeManeuver "\"MergeAtBack\""
par JoinManeuver.node[5].appl headerLength 0bit
attr unit bit
par JoinManeuver.node[5].prot typename "\"org.car2x.plexe.protocols.SimplePlatooningBeaconing\""
par JoinManeuver.node[5].prot beaconingInterval 0.1seconds
attr unit seconds
par JoinManeuver.node[5].prot priority 2
par JoinManeuver.node[5].prot packetSize 200
par JoinManeuver.node[5].prot headerLength 0bit
attr unit bit
par JoinManeuver.node[5].veins11pDriver typename "\"org.car2x.plexe.driver.Veins11pRadioDriver\""
par JoinManeuver.node[5].veins11pDriver headerLength 0bit
attr unit bit
par JoinManeuver.node[5].nic.phy80211p typename "\"org.car2x.veins.modules.phy.PhyLayer80211p\""
par JoinManeuver.node[5].nic.phy80211p recordStats false
par JoinManeuver.node[5].nic.phy80211p usePropagationDelay true
par JoinManeuver.node[5].nic.phy80211p noiseFloor -95dBm
attr unit dBm
par JoinManeuver.node[5].nic.phy80211p useNoiseFloor true
par JoinManeuver.node[5].nic.phy80211p antenna "<root>...</root> at content:1"
par JoinManeuver.node[5].nic.phy80211p antennaOffsetX 0m
attr unit m
par JoinManeuver.node[5].nic.phy80211p antennaOffsetY 0m
attr unit m
par JoinManeuver.node[5].nic.phy80211p antennaOffsetZ 1.895m
attr unit m
par JoinManeuver.node[5].nic.phy80211p antennaOffsetYaw 0rad
attr unit rad
par JoinManeuver.node[5].nic.phy80211p analogueModels "<root>...</root> at /media/nsen/misc-585/omnet/plexe/examples/joinManeuver//config.xml:32"
par JoinManeuver.node[5].nic.phy80211p decider "<root>...</root> at /media/nsen/misc-585/omnet/plexe/examples/joinManeuver//config.xml:32"
par JoinManeuver.node[5].nic.phy80211p minPowerLevel -94dBm
attr unit dBm
par JoinManeuver.node[5].nic.phy80211p timeRXToTX 0s
attr unit s
par JoinManeuver.node[5].nic.phy80211p timeRXToSleep 0s
attr unit s
par JoinManeuver.node[5].nic.phy80211p timeTXToRX 0s
attr unit s
par JoinManeuver.node[5].nic.phy80211p timeTXToSleep 0s
attr unit s
par JoinManeuver.node[5].nic.phy80211p timeSleepToRX 0s
attr unit s
par JoinManeuver.node[5].nic.phy80211p timeSleepToTX 0s
attr unit s
par JoinManeuver.node[5].nic.phy80211p initialRadioState 0
par JoinManeuver.node[5].nic.phy80211p radioMinAtt 1
par JoinManeuver.node[5].nic.phy80211p radioMaxAtt 0
par JoinManeuver.node[5].nic.phy80211p nbRadioChannels 1
par JoinManeuver.node[5].nic.phy80211p initialRadioChannel 0
par JoinManeuver.node[5].nic.phy80211p ccaThreshold -65dBm
attr unit dBm
par JoinManeuver.node[5].nic.phy80211p collectCollisionStatistics false
par JoinManeuver.node[5].nic.phy80211p allowTxDuringRx false
par JoinManeuver.node[5].nic.mac1609_4 typename "\"org.car2x.veins.modules.mac.ieee80211p.Mac1609_4\""
par JoinManeuver.node[5].nic.mac1609_4 notAffectedByHostState false
par JoinManeuver.node[5].nic.mac1609_4 headerLength 0bit
attr unit bit
par JoinManeuver.node[5].nic.mac1609_4 address "\"auto\""
par JoinManeuver.node[5].nic.mac1609_4 useServiceChannel false
par JoinManeuver.node[5].nic.mac1609_4 serviceChannel 1
par JoinManeuver.node[5].nic.mac1609_4 bitrate 6000000bps
attr unit bps
par JoinManeuver.node[5].nic.mac1609_4 syncOffset 0.0003s
attr unit s
par JoinManeuver.node[5].nic.mac1609_4 txPower 100mW
attr unit mW
par JoinManeuver.node[5].nic.mac1609_4 queueSize 0
par JoinManeuver.node[5].nic.mac1609_4 dot11RTSThreshold 12000bit
attr unit bit
par JoinManeuver.node[5].nic.mac1609_4 dot11ShortRetryLimit 7
par JoinManeuver.node[5].nic.mac1609_4 dot11LongRetryLimit 4
par JoinManeuver.node[5].nic.mac1609_4 ackLength 112bit
attr unit bit
par JoinManeuver.node[5].nic.mac1609_4 useAcks true
par JoinManeuver.node[5].nic.mac1609_4 frameErrorRate 0
par JoinManeuver.node[5].nic.mac1609_4 ackErrorRate 0
par JoinManeuver.node[5].nic typename "\"org.car2x.veins.modules.nic.Nic80211p\""
par JoinManeuver.node[5].nic connectionManagerName "\"connectionManager\""
par JoinManeuver.node[5].mobility typename "\"org.car2x.veins.modules.mobility.traci.TraCIMobility\""
par JoinManeuver.node[5].mobility notAffectedByHostState true
par JoinManeuver.node[5].mobility x 0
par JoinManeuver.node[5].mobility y 0
par JoinManeuver.node[5].mobility z 1.895
par JoinManeuver.node[5].mobility xOrientation 1
par JoinManeuver.node[5].mobility yOrientation 0
par JoinManeuver.node[5].mobility zOrientation 0
par JoinManeuver.node[5].mobility hostPositionOffset 0m
attr unit m
par JoinManeuver.node[5].mobility setHostSpeed false
par JoinManeuver.node[5].mobility accidentCount 0
par JoinManeuver.node[5].mobility accidentStart 53.7518s
attr unit s
par JoinManeuver.node[5].mobility accidentDuration "uniform(30s, 60s)"
attr unit s
par JoinManeuver.node[5].mobility accidentInterval "uniform(30s, 60s)"
attr unit s
par JoinManeuver.node[5] typename "\"org.car2x.plexe.PlatoonCar\""
par JoinManeuver.node[5] scenario_type "\"MergeManeuverScenario\""
par JoinManeuver.node[5] helper_type "\"PositionHelper\""
par JoinManeuver.node[5] appl_type "\"GeneralPlatooningApp\""
par JoinManeuver.node[5] protocol_type "\"SimplePlatooningBeaconing\""
par JoinManeuver.node[6].helper typename "\"org.car2x.plexe.utilities.PositionHelper\""
par JoinManeuver.node[6].scenario typename "\"org.car2x.plexe.scenarios.MergeManeuverScenario\""
par JoinManeuver.node[6].scenario leaderSpeed 100kmph
attr unit kmph
par JoinManeuver.node[6].scenario accHeadway 0.1s
attr unit s
par JoinManeuver.node[6].scenario leaderHeadway 1.2s
attr unit s
par JoinManeuver.node[6].scenario caccXi 1
par JoinManeuver.node[6].scenario caccOmegaN 0.2Hz
attr unit Hz
par JoinManeuver.node[6].scenario caccC1 0.5
par JoinManeuver.node[6].scenario caccSpacing 5m
attr unit m
par JoinManeuver.node[6].scenario engineTau 0.5s
attr unit s
par JoinManeuver.node[6].scenario uMin -1e+06mpsps
attr unit mpsps
par JoinManeuver.node[6].scenario uMax 1e+06mpsps
attr unit mpsps
par JoinManeuver.node[6].scenario ploegH 0.5s
attr unit s
par JoinManeuver.node[6].scenario ploegKp 0.2
par JoinManeuver.node[6].scenario ploegKd 0.7
par JoinManeuver.node[6].scenario flatbedKa 2.4
par JoinManeuver.node[6].scenario flatbedKv 0.6
par JoinManeuver.node[6].scenario flatbedKp 12
par JoinManeuver.node[6].scenario flatbedH 4
par JoinManeuver.node[6].scenario flatbedD 5
par JoinManeuver.node[6].scenario useControllerAcceleration true
par JoinManeuver.node[6].scenario usePrediction true
par JoinManeuver.node[6].scenario vehicleFile "\"./vehicles.xml\""
par JoinManeuver.node[6].scenario useRealisticEngine false
par JoinManeuver.node[6].scenario vehicleType "\"\""
par JoinManeuver.node[6].scenario headerLength 0bit
attr unit bit
par JoinManeuver.node[6].scenario targetController "\"CACC\""
par JoinManeuver.node[6].appl typename "\"org.car2x.plexe.apps.GeneralPlatooningApp\""
par JoinManeuver.node[6].appl joinManeuver "\"JoinAtBack\""
par JoinManeuver.node[6].appl mergeManeuver "\"MergeAtBack\""
par JoinManeuver.node[6].appl headerLength 0bit
attr unit bit
par JoinManeuver.node[6].prot typename "\"org.car2x.plexe.protocols.SimplePlatooningBeaconing\""
par JoinManeuver.node[6].prot beaconingInterval 0.1seconds
attr unit seconds
par JoinManeuver.node[6].prot priority 2
par JoinManeuver.node[6].prot packetSize 200
par JoinManeuver.node[6].prot headerLength 0bit
attr unit bit
par JoinManeuver.node[6].veins11pDriver typename "\"org.car2x.plexe.driver.Veins11pRadioDriver\""
par JoinManeuver.node[6].veins11pDriver headerLength 0bit
attr unit bit
par JoinManeuver.node[6].nic.phy80211p typename "\"org.car2x.veins.modules.phy.PhyLayer80211p\""
par JoinManeuver.node[6].nic.phy80211p recordStats false
par JoinManeuver.node[6].nic.phy80211p usePropagationDelay true
par JoinManeuver.node[6].nic.phy80211p noiseFloor -95dBm
attr unit dBm
par JoinManeuver.node[6].nic.phy80211p useNoiseFloor true
par JoinManeuver.node[6].nic.phy80211p antenna "<root>...</root> at content:1"
par JoinManeuver.node[6].nic.phy80211p antennaOffsetX 0m
attr unit m
par JoinManeuver.node[6].nic.phy80211p antennaOffsetY 0m
attr unit m
par JoinManeuver.node[6].nic.phy80211p antennaOffsetZ 1.895m
attr unit m
par JoinManeuver.node[6].nic.phy80211p antennaOffsetYaw 0rad
attr unit rad
par JoinManeuver.node[6].nic.phy80211p analogueModels "<root>...</root> at /media/nsen/misc-585/omnet/plexe/examples/joinManeuver//config.xml:32"
par JoinManeuver.node[6].nic.phy80211p decider "<root>...</root> at /media/nsen/misc-585/omnet/plexe/examples/joinManeuver//config.xml:32"
par JoinManeuver.node[6].nic.phy80211p minPowerLevel -94dBm
attr unit dBm
par JoinManeuver.node[6].nic.phy80211p timeRXToTX 0s
attr unit s
par JoinManeuver.node[6].nic.phy80211p timeRXToSleep 0s
attr unit s
par JoinManeuver.node[6].nic.phy80211p timeTXToRX 0s
attr unit s
par JoinManeuver.node[6].nic.phy80211p timeTXToSleep 0s
attr unit s
par JoinManeuver.node[6].nic.phy80211p timeSleepToRX 0s
attr unit s
par JoinManeuver.node[6].nic.phy80211p timeSleepToTX 0s
attr unit s
par JoinManeuver.node[6].nic.phy80211p initialRadioState 0
par JoinManeuver.node[6].nic.phy80211p radioMinAtt 1
par JoinManeuver.node[6].nic.phy80211p radioMaxAtt 0
par JoinManeuver.node[6].nic.phy80211p nbRadioChannels 1
par JoinManeuver.node[6].nic.phy80211p initialRadioChannel 0
par JoinManeuver.node[6].nic.phy80211p ccaThreshold -65dBm
attr unit dBm
par JoinManeuver.node[6].nic.phy80211p collectCollisionStatistics false
par JoinManeuver.node[6].nic.phy80211p allowTxDuringRx false
par JoinManeuver.node[6].nic.mac1609_4 typename "\"org.car2x.veins.modules.mac.ieee80211p.Mac1609_4\""
par JoinManeuver.node[6].nic.mac1609_4 notAffectedByHostState false
par JoinManeuver.node[6].nic.mac1609_4 headerLength 0bit
attr unit bit
par JoinManeuver.node[6].nic.mac1609_4 address "\"auto\""
par JoinManeuver.node[6].nic.mac1609_4 useServiceChannel false
par JoinManeuver.node[6].nic.mac1609_4 serviceChannel 1
par JoinManeuver.node[6].nic.mac1609_4 bitrate 6000000bps
attr unit bps
par JoinManeuver.node[6].nic.mac1609_4 syncOffset 0.0003s
attr unit s
par JoinManeuver.node[6].nic.mac1609_4 txPower 100mW
attr unit mW
par JoinManeuver.node[6].nic.mac1609_4 queueSize 0
par JoinManeuver.node[6].nic.mac1609_4 dot11RTSThreshold 12000bit
attr unit bit
par JoinManeuver.node[6].nic.mac1609_4 dot11ShortRetryLimit 7
par JoinManeuver.node[6].nic.mac1609_4 dot11LongRetryLimit 4
par JoinManeuver.node[6].nic.mac1609_4 ackLength 112bit
attr unit bit
par JoinManeuver.node[6].nic.mac1609_4 useAcks true
par JoinManeuver.node[6].nic.mac1609_4 frameErrorRate 0
par JoinManeuver.node[6].nic.mac1609_4 ackErrorRate 0
par JoinManeuver.node[6].nic typename "\"org.car2x.veins.modules.nic.Nic80211p\""
par JoinManeuver.node[6].nic connectionManagerName "\"connectionManager\""
par JoinManeuver.node[6].mobility typename "\"org.car2x.veins.modules.mobility.traci.TraCIMobility\""
par JoinManeuver.node[6].mobility notAffectedByHostState true
par JoinManeuver.node[6].mobility x 0
par JoinManeuver.node[6].mobility y 0
par JoinManeuver.node[6].mobility z 1.895
par JoinManeuver.node[6].mobility xOrientation 1
par JoinManeuver.node[6].mobility yOrientation 0
par JoinManeuver.node[6].mobility zOrientation 0
par JoinManeuver.node[6].mobility hostPositionOffset 0m
attr unit m
par JoinManeuver.node[6].mobility setHostSpeed false
par JoinManeuver.node[6].mobility accidentCount 0
par JoinManeuver.node[6].mobility accidentStart 47.0413s
attr unit s
par JoinManeuver.node[6].mobility accidentDuration "uniform(30s, 60s)"
attr unit s
par JoinManeuver.node[6].mobility accidentInterval "uniform(30s, 60s)"
attr unit s
par JoinManeuver.node[6] typename "\"org.car2x.plexe.PlatoonCar\""
par JoinManeuver.node[6] scenario_type "\"MergeManeuverScenario\""
par JoinManeuver.node[6] helper_type "\"PositionHelper\""
par JoinManeuver.node[6] appl_type "\"GeneralPlatooningApp\""
par JoinManeuver.node[6] protocol_type "\"SimplePlatooningBeaconing\""
par JoinManeuver.node[7].helper typename "\"org.car2x.plexe.utilities.PositionHelper\""
par JoinManeuver.node[7].scenario typename "\"org.car2x.plexe.scenarios.MergeManeuverScenario\""
par JoinManeuver.node[7].scenario leaderSpeed 100kmph
attr unit kmph
par JoinManeuver.node[7].scenario accHeadway 0.1s
attr unit s
par JoinManeuver.node[7].scenario leaderHeadway 1.2s
attr unit s
par JoinManeuver.node[7].scenario caccXi 1
par JoinManeuver.node[7].scenario caccOmegaN 0.2Hz
attr unit Hz
par JoinManeuver.node[7].scenario caccC1 0.5
par JoinManeuver.node[7].scenario caccSpacing 5m
attr unit m
par JoinManeuver.node[7].scenario engineTau 0.5s
attr unit s
par JoinManeuver.node[7].scenario uMin -1e+06mpsps
attr unit mpsps
par JoinManeuver.node[7].scenario uMax 1e+06mpsps
attr unit mpsps
par JoinManeuver.node[7].scenario ploegH 0.5s
attr unit s
par JoinManeuver.node[7].scenario ploegKp 0.2
par JoinManeuver.node[7].scenario ploegKd 0.7
par JoinManeuver.node[7].scenario flatbedKa 2.4
par JoinManeuver.node[7].scenario flatbedKv 0.6
par JoinManeuver.node[7].scenario flatbedKp 12
par JoinManeuver.node[7].scenario flatbedH 4
par JoinManeuver.node[7].scenario flatbedD 5
par JoinManeuver.node[7].scenario useControllerAcceleration true
par JoinManeuver.node[7].scenario usePrediction true
par JoinManeuver.node[7].scenario vehicleFile "\"./vehicles.xml\""
par JoinManeuver.node[7].scenario useRealisticEngine false
par JoinManeuver.node[7].scenario vehicleType "\"\""
par JoinManeuver.node[7].scenario headerLength 0bit
attr unit bit
par JoinManeuver.node[7].scenario targetController "\"CACC\""
par JoinManeuver.node[7].appl typename "\"org.car2x.plexe.apps.GeneralPlatooningApp\""
par JoinManeuver.node[7].appl joinManeuver "\"JoinAtBack\""
par JoinManeuver.node[7].appl mergeManeuver "\"MergeAtBack\""
par JoinManeuver.node[7].appl headerLength 0bit
attr unit bit
par JoinManeuver.node[7].prot typename "\"org.car2x.plexe.protocols.SimplePlatooningBeaconing\""
par JoinManeuver.node[7].prot beaconingInterval 0.1seconds
attr unit seconds
par JoinManeuver.node[7].prot priority 2
par JoinManeuver.node[7].prot packetSize 200
par JoinManeuver.node[7].prot headerLength 0bit
attr unit bit
par JoinManeuver.node[7].veins11pDriver typename "\"org.car2x.plexe.driver.Veins11pRadioDriver\""
par JoinManeuver.node[7].veins11pDriver headerLength 0bit
attr unit bit
par JoinManeuver.node[7].nic.phy80211p typename "\"org.car2x.veins.modules.phy.PhyLayer80211p\""
par JoinManeuver.node[7].nic.phy80211p recordStats false
par JoinManeuver.node[7].nic.phy80211p usePropagationDelay true
par JoinManeuver.node[7].nic.phy80211p noiseFloor -95dBm
attr unit dBm
par JoinManeuver.node[7].nic.phy80211p useNoiseFloor true
par JoinManeuver.node[7].nic.phy80211p antenna "<root>...</root> at content:1"
par JoinManeuver.node[7].nic.phy80211p antennaOffsetX 0m
attr unit m
par JoinManeuver.node[7].nic.phy80211p antennaOffsetY 0m
attr unit m
par JoinManeuver.node[7].nic.phy80211p antennaOffsetZ 1.895m
attr unit m
par JoinManeuver.node[7].nic.phy80211p antennaOffsetYaw 0rad
attr unit rad
par JoinManeuver.node[7].nic.phy80211p analogueModels "<root>...</root> at /media/nsen/misc-585/omnet/plexe/examples/joinManeuver//config.xml:32"
par JoinManeuver.node[7].nic.phy80211p decider "<root>...</root> at /media/nsen/misc-585/omnet/plexe/examples/joinManeuver//config.xml:32"
par JoinManeuver.node[7].nic.phy80211p minPowerLevel -94dBm
attr unit dBm
par JoinManeuver.node[7].nic.phy80211p timeRXToTX 0s
attr unit s
par JoinManeuver.node[7].nic.phy80211p timeRXToSleep 0s
attr unit s
par JoinManeuver.node[7].nic.phy80211p timeTXToRX 0s
attr unit s
par JoinManeuver.node[7].nic.phy80211p timeTXToSleep 0s
attr unit s
par JoinManeuver.node[7].nic.phy80211p timeSleepToRX 0s
attr unit s
par JoinManeuver.node[7].nic.phy80211p timeSleepToTX 0s
attr unit s
par JoinManeuver.node[7].nic.phy80211p initialRadioState 0
par JoinManeuver.node[7].nic.phy80211p radioMinAtt 1
par JoinManeuver.node[7].nic.phy80211p radioMaxAtt 0
par JoinManeuver.node[7].nic.phy80211p nbRadioChannels 1
par JoinManeuver.node[7].nic.phy80211p initialRadioChannel 0
par JoinManeuver.node[7].nic.phy80211p ccaThreshold -65dBm
attr unit dBm
par JoinManeuver.node[7].nic.phy80211p collectCollisionStatistics false
par JoinManeuver.node[7].nic.phy80211p allowTxDuringRx false
par JoinManeuver.node[7].nic.mac1609_4 typename "\"org.car2x.veins.modules.mac.ieee80211p.Mac1609_4\""
par JoinManeuver.node[7].nic.mac1609_4 notAffectedByHostState false
par JoinManeuver.node[7].nic.mac1609_4 headerLength 0bit
attr unit bit
par JoinManeuver.node[7].nic.mac1609_4 address "\"auto\""
par JoinManeuver.node[7].nic.mac1609_4 useServiceChannel false
par JoinManeuver.node[7].nic.mac1609_4 serviceChannel 1
par JoinManeuver.node[7].nic.mac1609_4 bitrate 6000000bps
attr unit bps
par JoinManeuver.node[7].nic.mac1609_4 syncOffset 0.0003s
attr unit s
par JoinManeuver.node[7].nic.mac1609_4 txPower 100mW
attr unit mW
par JoinManeuver.node[7].nic.mac1609_4 queueSize 0
par JoinManeuver.node[7].nic.mac1609_4 dot11RTSThreshold 12000bit
attr unit bit
par JoinManeuver.node[7].nic.mac1609_4 dot11ShortRetryLimit 7
par JoinManeuver.node[7].nic.mac1609_4 dot11LongRetryLimit 4
par JoinManeuver.node[7].nic.mac1609_4 ackLength 112bit
attr unit bit
par JoinManeuver.node[7].nic.mac1609_4 useAcks true
par JoinManeuver.node[7].nic.mac1609_4 frameErrorRate 0
par JoinManeuver.node[7].nic.mac1609_4 ackErrorRate 0
par JoinManeuver.node[7].nic typename "\"org.car2x.veins.modules.nic.Nic80211p\""
par JoinManeuver.node[7].nic connectionManagerName "\"connectionManager\""
par JoinManeuver.node[7].mobility typename "\"org.car2x.veins.modules.mobility.traci.TraCIMobility\""
par JoinManeuver.node[7].mobility notAffectedByHostState true
par JoinManeuver.node[7].mobility x 0
par JoinManeuver.node[7].mobility y 0
par JoinManeuver.node[7].mobility z 1.895
par JoinManeuver.node[7].mobility xOrientation 1
par JoinManeuver.node[7].mobility yOrientation 0
par JoinManeuver.node[7].mobility zOrientation 0
par JoinManeuver.node[7].mobility hostPositionOffset 0m
attr unit m
par JoinManeuver.node[7].mobility setHostSpeed false
par JoinManeuver.node[7].mobility accidentCount 0
par JoinManeuver.node[7].mobility accidentStart 32.1311s
attr unit s
par JoinManeuver.node[7].mobility accidentDuration "uniform(30s, 60s)"
attr unit s
par JoinManeuver.node[7].mobility accidentInterval "uniform(30s, 60s)"
attr unit s
par JoinManeuver.node[7] typename "\"org.car2x.plexe.PlatoonCar\""
par JoinManeuver.node[7] scenario_type "\"MergeManeuverScenario\""
par JoinManeuver.node[7] helper_type "\"PositionHelper\""
par JoinManeuver.node[7] appl_type "\"GeneralPlatooningApp\""
par JoinManeuver.node[7] protocol_type "\"SimplePlatooningBeaconing\""
par JoinManeuver typename "\"JoinManeuver\""
par JoinManeuver playgroundSizeX 65000m
attr unit m
par JoinManeuver playgroundSizeY 25000m
attr unit m
par JoinManeuver playgroundSizeZ 50m
attr unit m
par JoinManeuver traffic_type "\"PlatoonsTrafficManager\""
par JoinManeuver useLaunchd false
par JoinManeuver manager_type "\"PlexeScenarioManagerForker\""

