file 204588 1724151232                                          
version 3
run Braking-0-20240820-16:23:41-5727
attr configname Braking
attr datetime 20240820-16:23:41
attr datetimef 20240820-162341
attr experiment Braking
attr inifile omnetpp.ini
attr iterationvars "$nCars=8, $platoonSize=8, $nLanes=1, $ploegH=0.5, $controller=0, $headway=0.3, $leaderHeadway=1.2, $leaderSpeed=100, $beaconInterval=0.1, $priority=4, $packetSize=200, $sController=\"ACC\", $0=2, $1=0.3"
attr iterationvarsd nCars=8/platoonSize=8/nLanes=1/ploegH=0.5/controller=0/headway=0.3/leaderHeadway=1.2/leaderSpeed=100/beaconInterval=0.1/priority=4/packetSize=200/sController=ACC/2/0.3
attr iterationvarsf nCars=8,platoonSize=8,nLanes=1,ploegH=0.5,controller=0,headway=0.3,leaderHeadway=1.2,leaderSpeed=100,beaconInterval=0.1,priority=4,packetSize=200,sController=ACC,2,0.3-
attr measurement "$nCars=8, $platoonSize=8, $nLanes=1, $ploegH=0.5, $controller=0, $headway=0.3, $leaderHeadway=1.2, $leaderSpeed=100, $beaconInterval=0.1, $priority=4, $packetSize=200, $sController=\"ACC\", $0=2, $1=0.3"
attr network Platooning
attr processid 5727
attr repetition 0
attr replication #0
attr resultdir results
attr runnumber 0
attr seedset 0
itervar beaconInterval 0.1
itervar controller 0
itervar headway 0.3
itervar leaderHeadway 1.2
itervar leaderSpeed 100
itervar nCars 8
itervar nLanes 1
itervar packetSize 200
itervar platoonSize 8
itervar ploegH 0.5
itervar priority 4
itervar sController "\"ACC\""
config image-path ../../../veins/images
config *.manager.command "\"sumo-gui\""
config *.node[*].scenario_type "\"BrakingScenario\""
config *.node[*].scenario.leaderOscillationFrequency "0.2 Hz"
config *.node[*].scenario.brakingDeceleration "8 mpsps"
config *.node[*].scenario.startBraking "5 s"
config output-vector-file results/Braking_0_0.3_0.vec
config output-scalar-file results/Braking_0_0.3_0.sca
config cmdenv-express-mode true
config cmdenv-autoflush true
config cmdenv-status-frequency 10s
config num-rngs 6
config network Platooning
config debug-on-errors true
config print-undisposed true
config *.playgroundSizeX 65000m
config *.playgroundSizeY 25000m
config *.playgroundSizeZ 50m
config sim-time-limit "60 s"
config *.annotations.draw false
config *.obstacles.debug false
config *.world.useTorus false
config *.world.use2D false
config *.manager.updateInterval 0.01s
config *.manager.host "\"localhost\""
config *.manager.moduleType "\"org.car2x.plexe.PlatoonCar\""
config *.manager.moduleName "\"node\""
config *.manager.moduleDisplayString "\"\""
config *.manager.autoShutdown true
config *.manager.margin 25
config *.connectionManager.sendDirect true
config *.connectionManager.maxInterfDist 2600m
config *.connectionManager.drawMaxIntfDist false
config *.**.nic.mac1609_4.useServiceChannel false
config *.**.nic.mac1609_4.txPower 100mW
config *.**.nic.mac1609_4.bitrate 6Mbps
config *.**.nic.mac1609_4.useAcks true
config *.**.nic.mac1609_4.ackErrorRate 0.0
config *.**.nic.mac1609_4.frameErrorRate 0.0
config *.**.nic.phy80211p.minPowerLevel -94dBm
config *.**.nic.phy80211p.maxTXPower 100mW
config *.**.nic.phy80211p.useNoiseFloor true
config *.**.nic.phy80211p.noiseFloor -95dBm
config *.**.nic.phy80211p.decider "xmldoc(\"config.xml\")"
config *.**.nic.phy80211p.analogueModels "xmldoc(\"config.xml\")"
config *.**.nic.phy80211p.usePropagationDelay true
config *.node[*].mobility.x 0
config *.node[*].mobility.y 0
config *.node[*].mobility.z 1.895
config seed-set 0
config **.seed 0
config *.node[*].prot.rng-0 2
config *.node[*].appl.rng-0 3
config *.node[*].scenario.rng-0 4
config **.traffic.rng-0 5
config *.manager.configFile "\"./sumocfg/freeway.sumo.cfg\""
config *.manager.launchConfig "xmldoc(\"./sumocfg/freeway.launchd.xml\")"
config **.numberOfCars 8
config **.numberOfCarsPerPlatoon 8
config **.numberOfLanes 1
config *.node[*].helper_type "\"PositionHelper\""
config *.node[*].scenario.caccC1 0.5
config *.node[*].scenario.caccXi 1
config *.node[*].scenario.caccOmegaN "0.2 Hz"
config *.node[*].scenario.caccSpacing "5 m"
config *.node[*].scenario.engineTau "0.5 s"
config *.node[*].scenario.ploegH 0.5s
config *.node[*].scenario.ploegKp 0.2
config *.node[*].scenario.ploegKd 0.7
config *.node[*].scenario.useRealisticEngine false
config *.node[*].scenario.useControllerAcceleration true
config *.node[*].scenario.nLanes 1
config **.numericController 0
config **.headway 0.3s
config *.node[*].scenario.accHeadway 0.3s
config *.node[*].scenario.leaderHeadway 1.2s
config *.node[*].scenario.leaderSpeed 100kmph
config *.node[*].appl_type "\"SimplePlatooningApp\""
config *.node[*].appl.*.scalar-recording true
config *.node[*].appl.*.vector-recording true
config *.node[*].protocol_type "\"SimplePlatooningBeaconing\""
config *.node[*].prot.*.scalar-recording true
config *.node[*].prot.*.vector-recording true
config *.node[*].prot.beaconingInterval 0.1s
config *.node[*].prot.priority 4
config *.node[*].prot.packetSize 200
config **.traffic_type "\"PlatoonsTrafficManager\""
config **.traffic.platoonInsertTime "1 s"
config **.traffic.platoonInsertSpeed 100kmph
config **.traffic.nCars 8
config **.traffic.platoonSize 8
config **.traffic.nLanes 1
config **.traffic.platooningVType "\"vtypeauto\""
config **.traffic.controller "\"ACC\""
config **.traffic.platoonInsertDistance 2m
config **.traffic.platoonInsertHeadway 0.3s
config **.traffic.platoonLeaderHeadway 1.2s
config **.scalar-recording false
config **.vector-recording false

vector 0 Platooning.node[0].appl distance ETV
vector 1 Platooning.node[0].appl relativeSpeed ETV
vector 2 Platooning.node[0].appl nodeId ETV
vector 3 Platooning.node[0].appl acceleration ETV
vector 4 Platooning.node[0].appl controllerAcceleration ETV
vector 5 Platooning.node[0].appl speed ETV
vector 6 Platooning.node[0].appl posx ETV
vector 7 Platooning.node[0].appl posy ETV
vector 8 Platooning.node[1].appl distance ETV
vector 9 Platooning.node[1].appl relativeSpeed ETV
vector 10 Platooning.node[1].appl nodeId ETV
vector 11 Platooning.node[1].appl acceleration ETV
vector 12 Platooning.node[1].appl controllerAcceleration ETV
vector 13 Platooning.node[1].appl speed ETV
vector 14 Platooning.node[1].appl posx ETV
vector 15 Platooning.node[1].appl posy ETV
vector 16 Platooning.node[2].appl distance ETV
vector 17 Platooning.node[2].appl relativeSpeed ETV
vector 18 Platooning.node[2].appl nodeId ETV
vector 19 Platooning.node[2].appl acceleration ETV
vector 20 Platooning.node[2].appl controllerAcceleration ETV
vector 21 Platooning.node[2].appl speed ETV
vector 22 Platooning.node[2].appl posx ETV
vector 23 Platooning.node[2].appl posy ETV
vector 24 Platooning.node[3].appl distance ETV
vector 25 Platooning.node[3].appl relativeSpeed ETV
vector 26 Platooning.node[3].appl nodeId ETV
vector 27 Platooning.node[3].appl acceleration ETV
vector 28 Platooning.node[3].appl controllerAcceleration ETV
vector 29 Platooning.node[3].appl speed ETV
vector 30 Platooning.node[3].appl posx ETV
vector 31 Platooning.node[3].appl posy ETV
vector 32 Platooning.node[4].appl distance ETV
vector 33 Platooning.node[4].appl relativeSpeed ETV
vector 34 Platooning.node[4].appl nodeId ETV
vector 35 Platooning.node[4].appl acceleration ETV
vector 36 Platooning.node[4].appl controllerAcceleration ETV
vector 37 Platooning.node[4].appl speed ETV
vector 38 Platooning.node[4].appl posx ETV
vector 39 Platooning.node[4].appl posy ETV
vector 40 Platooning.node[5].appl distance ETV
vector 41 Platooning.node[5].appl relativeSpeed ETV
vector 42 Platooning.node[5].appl nodeId ETV
vector 43 Platooning.node[5].appl acceleration ETV
vector 44 Platooning.node[5].appl controllerAcceleration ETV
vector 45 Platooning.node[5].appl speed ETV
vector 46 Platooning.node[5].appl posx ETV
vector 47 Platooning.node[5].appl posy ETV
vector 48 Platooning.node[6].appl distance ETV
vector 49 Platooning.node[6].appl relativeSpeed ETV
vector 50 Platooning.node[6].appl nodeId ETV
vector 51 Platooning.node[6].appl acceleration ETV
vector 52 Platooning.node[6].appl controllerAcceleration ETV
vector 53 Platooning.node[6].appl speed ETV
vector 54 Platooning.node[6].appl posx ETV
vector 55 Platooning.node[6].appl posy ETV
vector 56 Platooning.node[7].appl distance ETV
vector 57 Platooning.node[7].appl relativeSpeed ETV
vector 58 Platooning.node[7].appl nodeId ETV
vector 59 Platooning.node[7].appl acceleration ETV
vector 60 Platooning.node[7].appl controllerAcceleration ETV
vector 61 Platooning.node[7].appl speed ETV
vector 62 Platooning.node[7].appl posx ETV
vector 63 Platooning.node[7].appl posy ETV
vector 64 Platooning.node[3].prot frontDelay ETV
vector 65 Platooning.node[3].prot frontDelayId ETV
vector 66 Platooning.node[2].prot frontDelay ETV
vector 67 Platooning.node[2].prot frontDelayId ETV
vector 68 Platooning.node[7].prot frontDelay ETV
vector 69 Platooning.node[7].prot frontDelayId ETV
vector 70 Platooning.node[1].prot leaderDelay ETV
vector 71 Platooning.node[1].prot leaderDelayId ETV
vector 72 Platooning.node[1].prot frontDelay ETV
vector 73 Platooning.node[1].prot frontDelayId ETV
vector 74 Platooning.node[2].prot leaderDelay ETV
vector 75 Platooning.node[2].prot leaderDelayId ETV
vector 76 Platooning.node[3].prot leaderDelay ETV
vector 77 Platooning.node[3].prot leaderDelayId ETV
vector 78 Platooning.node[4].prot leaderDelay ETV
vector 79 Platooning.node[4].prot leaderDelayId ETV
vector 80 Platooning.node[5].prot leaderDelay ETV
vector 81 Platooning.node[5].prot leaderDelayId ETV
vector 82 Platooning.node[6].prot leaderDelay ETV
vector 83 Platooning.node[6].prot leaderDelayId ETV
vector 84 Platooning.node[7].prot leaderDelay ETV
vector 85 Platooning.node[7].prot leaderDelayId ETV
vector 86 Platooning.node[5].prot frontDelay ETV
vector 87 Platooning.node[5].prot frontDelayId ETV
vector 88 Platooning.node[4].prot frontDelay ETV
vector 89 Platooning.node[4].prot frontDelayId ETV
vector 90 Platooning.node[6].prot frontDelay ETV
vector 91 Platooning.node[6].prot frontDelayId ETV
vector 92 Platooning.node[0].prot nodeId ETV
vector 93 Platooning.node[0].prot busyTime ETV
vector 94 Platooning.node[0].prot collisions ETV
vector 95 Platooning.node[1].prot nodeId ETV
vector 96 Platooning.node[1].prot busyTime ETV
vector 97 Platooning.node[1].prot collisions ETV
vector 98 Platooning.node[2].prot nodeId ETV
vector 99 Platooning.node[2].prot busyTime ETV
vector 100 Platooning.node[2].prot collisions ETV
vector 101 Platooning.node[3].prot nodeId ETV
vector 102 Platooning.node[3].prot busyTime ETV
vector 103 Platooning.node[3].prot collisions ETV
vector 104 Platooning.node[4].prot nodeId ETV
vector 105 Platooning.node[4].prot busyTime ETV
vector 106 Platooning.node[4].prot collisions ETV
vector 107 Platooning.node[5].prot nodeId ETV
vector 108 Platooning.node[5].prot busyTime ETV
vector 109 Platooning.node[5].prot collisions ETV
vector 110 Platooning.node[6].prot nodeId ETV
vector 111 Platooning.node[6].prot busyTime ETV
vector 112 Platooning.node[6].prot collisions ETV
vector 113 Platooning.node[7].prot nodeId ETV
vector 114 Platooning.node[7].prot busyTime ETV
vector 115 Platooning.node[7].prot collisions ETV
0	11014 1339 113 46042 1.11 9.51 85 -1 -1 -85 85
1	12353 1254 113 46042 1.11 9.51 85 0 0 0 0
2	13607 1254 113 46042 1.11 9.51 85 0 0 0 0
3	14861 1931 113 46042 1.11 9.51 85 -7.99653 6.29785e-05 -276.38065005666 2049.8337855634
4	16792 1694 113 46042 1.11 9.51 85 -8 9.78798e-05 -320.02153984791 2560.0000347114
5	18486 1721 113 46042 1.11 9.51 85 0 27.78 1705.445086 42693.130502121
6	20207 1753 113 46042 1.11 9.51 85 111.27 280.423 18447.335 4260410.836455
7	21960 1679 113 46042 1.11 9.51 85 242.45 242.45 20608.25 4996470.2125
8	23639 1744 114 46043 1.11 9.51 85 1.45841 10.3306 671.18794 6144.4047677968
9	25383 1963 114 46043 1.11 9.51 85 -2.98593 0.000388537 -88.67056147135 207.84115036178
10	27346 1339 114 46043 1.11 9.51 85 1 1 85 85
11	28685 2043 114 46043 1.11 9.51 85 -8.89121 0.000143197 -275.2317243847 2109.0954778618
12	30728 2035 114 46043 1.11 9.51 85 -10.3133 0.000286087 -307.31742677127 2497.1878936633
13	32763 1826 114 46043 1.11 9.51 85 0 27.78 1794.116055 45338.577814532
14	34589 1837 114 46043 1.11 9.51 85 96.9402 274.964 17436.1464 3857959.9907953
15	36426 1764 114 46043 1.11 9.51 85 242.45 242.45 20608.25 4996470.2125
16	38190 1810 115 46044 1.11 9.51 85 0 10.3306 683.858317 6410.2811657542
17	40000 2080 115 46044 1.11 9.51 85 -3.54296 0.000498734 -94.709813638663 256.93678818345
18	42080 1339 115 46044 1.11 9.51 85 2 2 170 340
19	43419 1991 115 46044 1.11 9.51 85 -9 0.000422225 -279.1533449796 2258.8587409496
20	45410 2055 115 46044 1.11 9.51 85 -38.2487 0.000703132 -369.66011045892 4620.5887527052
21	47465 1836 115 46044 1.11 9.51 85 0.292487 27.78 1888.825837 48237.259288346
22	49301 1838 115 46044 1.11 9.51 85 82.6102 270.098 16411.4172 3475285.0460298
23	51139 1764 115 46044 1.11 9.51 85 242.45 242.45 20608.25 4996470.2125
24	52903 1835 116 46045 1.11 9.51 85 0 10.34 707.5467846 6785.8909505308
25	54738 2089 116 46045 1.11 9.51 85 -3.71605 0 -103.8212332111 342.22915561642
26	56827 1339 116 46045 1.11 9.51 85 3 3 255 765
27	58166 1943 116 46045 1.11 9.51 85 -9 0.000786108 -254.3606056936 2131.8497458982
28	60109 2059 116 46045 1.11 9.51 85 -16.9947 0.00192379 -381.525333136 4532.6974976759
29	62168 1842 116 46045 1.11 9.51 85 0.0799472 27.7804 1992.4347072 51380.171269138
30	64010 1842 116 46045 1.11 9.51 85 68.2702 266.101 15363.8749 3108723.0001732
31	65852 1764 116 46045 1.11 9.51 85 242.45 242.45 20608.25 4996470.2125
32	67616 1831 117 46046 1.11 9.51 85 0.57936 10.3308 747.5492 7212.7070459782
33	69447 2099 117 46046 1.11 9.51 85 -6.40195 0.00077517 -100.44031500724 363.95818075246
34	71546 1339 117 46046 1.11 9.51 85 4 4 340 1360
35	72885 1973 117 46046 1.11 9.51 85 -9 0.0011853 -217.00493466321 1793.3036396812
36	74858 2071 117 46046 1.11 9.51 85 -22.4492 0.00172809 -350.2096450432 4460.842980114
37	76929 1831 117 46046 1.11 9.51 85 6.4819 27.78 2092.8745 54500.48896791
38	78760 1835 117 46046 1.11 9.51 85 53.9402 261.522 14276.3266 2750460.7697413
39	80595 1764 117 46046 1.11 9.51 85 242.45 242.45 20608.25 4996470.2125
40	82359 1829 118 46047 1.11 9.51 85 2.29943 10.3308 785.09983 7646.9905559299
41	84188 2106 118 46047 1.11 9.51 85 -3.73332 0.00108371 -82.172000197759 277.91336767885
42	86294 1339 118 46047 1.11 9.51 85 5 5 425 2125
43	87633 2012 118 46047 1.11 9.51 85 -9 0.00188806 -179.70730745652 1454.7814906711
44	89645 2084 118 46047 1.11 9.51 85 -13.3627 0.00281565 -285.0413448275 3373.4896145239
45	91729 1842 118 46047 1.11 9.51 85 10.2152 27.78 2175.0464 57422.2573391
46	93571 1837 118 46047 1.11 9.51 85 39.6102 255.223 13151.2275 2403620.3316535
47	95408 1764 118 46047 1.11 9.51 85 242.45 242.45 20608.25 4996470.2125
48	97172 1835 119 46048 1.11 9.51 85 3.86554 10.34 816.55286 8064.7456745434
49	99007 2128 119 46048 1.11 9.51 85 -3.72517 0.000867685 -66.60764669364 218.66336959421
50	101135 1339 119 46048 1.11 9.51 85 6 6 510 3060
51	102474 2055 119 46048 1.11 9.51 85 -9 0.00262378 -142.4958802242 1117.061796453
52	104529 2090 119 46048 1.11 9.51 85 -13.186 0.0042445 -229.354064629 2620.3682319051
53	106619 1841 119 46048 1.11 9.51 85 13.9404 27.7804 2241.6546 60039.14063918
54	108460 1845 119 46048 1.11 9.51 85 25.2702 247.357 11994.6762 2073098.8744169
55	110305 1764 119 46048 1.11 9.51 85 242.45 242.45 20608.25 4996470.2125
56	112069 1838 120 46049 1.11 9.51 85 5.41256 10.331 840.27733 8411.0722214837
57	113907 2123 120 46049 1.11 9.51 85 -3.71476 0.00191527 -51.0324698724 159.91896349844
58	116030 1339 120 46049 1.11 9.51 85 7 7 595 4165
59	117369 2094 120 46049 1.11 9.51 85 -9 0.00326544 -105.2944960277 778.7260994304
60	119463 2111 120 46049 1.11 9.51 85 -13.0071 0.00569383 -174.646702542 1891.3893557003
61	121574 1835 120 46049 1.11 9.51 85 17.6551 27.78 2292.6866 62232.5801372
62	123409 1838 120 46049 1.11 9.51 85 10.9402 237.944 10814.3973 1763872.8984449
63	125247 1764 120 46049 1.11 9.51 85 242.45 242.45 20608.25 4996470.2125
64	127011 3207 702 45533 1.213891386493 9.413886485544 83 0.099987853105 0.100001338661 8.299996437711 0.82999928875802
65	130218 2135 702 45533 1.213891386493 9.413886485544 83 3 3 249 747
66	132353 3193 769 45600 1.22964143426 9.429636504844 83 0.099987579463 0.100001338661 8.299996409244 0.82999928307655
67	135546 2130 769 45600 1.22964143426 9.429636504844 83 2 2 166 332
68	137676 3202 835 45678 1.254413673325 9.45442161636 83 0.099987998041 0.100001338661 8.300009281695 0.83000185741458
69	140878 2132 835 45678 1.254413673325 9.45442161636 83 7 7 581 4067
70	143010 3193 898 45735 1.25487596019 9.454857715209 83 0.099910288452 0.10006633866 8.299970093679 0.82999414188809
71	146203 2131 898 45735 1.25487596019 9.454857715209 83 1 1 83 83
72	148334 3193 898 45735 1.25487596019 9.454857715209 83 0.099910288452 0.10006633866 8.299970093679 0.82999414188809
73	151527 2131 898 45735 1.25487596019 9.454857715209 83 1 1 83 83
74	153658 3195 904 45741 1.254876007989 9.45485773153 83 0.099910287411 0.10006633866 8.299970062201 0.82999413559249
75	156853 2130 904 45741 1.254876007989 9.45485773153 83 2 2 166 332
76	158983 3200 910 45747 1.254876055823 9.454857744824 83 0.099910286851 0.10006633866 8.299970027661 0.82999412868447
77	162183 2135 910 45747 1.254876055823 9.454857744824 83 3 3 249 747
78	164318 3189 916 45753 1.254876103622 9.454857761167 83 0.099910286688 0.10006633866 8.299969996205 0.82999412239325
79	167507 2129 916 45753 1.254876103622 9.454857761167 83 4 4 332 1328
80	169636 3197 922 45759 1.254876151422 9.454857782802 83 0.099910286659 0.10006633866 8.29996997004 0.82999411716028
81	172833 2133 922 45759 1.254876151422 9.454857782802 83 5 5 415 2075
82	174966 3195 928 45765 1.254876199255 9.45485780966 83 0.099910286655 0.100066338659 8.299969949065 0.82999411296531
83	178161 2128 928 45765 1.254876199255 9.45485780966 83 6 6 498 2988
84	180289 3199 934 45771 1.254876247055 9.454857841677 83 0.099910286656 0.10006633866 8.299969933282 0.82999410980867
85	183488 2134 934 45771 1.254876247055 9.454857841677 83 7 7 581 4067
86	185622 3193 1037 45874 1.265732438288 9.465739943698 83 0.099987952249 0.100001338661 8.30000884407 0.83000176989065
87	188815 2130 1037 45874 1.265732438288 9.465739943698 83 5 5 415 2075
88	190945 3190 1101 45944 1.303543486088 9.503537953591 83 0.099987642882 0.100001338661 8.299995806163 0.82999916245631
89	194135 2124 1101 45944 1.303543486088 9.503537953591 83 4 4 332 1328
90	196259 3204 1173 46010 1.305149581721 9.505144000841 83 0.099987794541 0.100001338661 8.299995757781 0.82999915277338
91	199463 2132 1173 46010 1.305149581721 9.505144000841 83 6 6 498 2988
92	201595 103 4894 43171 2 9 8 0 0 0 0
93	201698 152 4894 43171 2 9 8 0.021849 0.02497 0.196639 0.004841885101
94	201850 103 4894 43171 2 9 8 0 0 0 0
95	201953 103 4895 43172 2 9 8 1 1 8 8
96	202056 152 4895 43172 2 9 8 0.021849 0.02497 0.196639 0.004841885101
97	202208 103 4895 43172 2 9 8 0 0 0 0
98	202311 103 4896 43173 2 9 8 2 2 16 32
99	202414 152 4896 43173 2 9 8 0.021849 0.02497 0.196639 0.004841885101
100	202566 111 4896 43173 2 9 8 0 0 0 0
101	202677 111 4897 43174 2 9 8 3 3 24 72
102	202788 160 4897 43174 2 9 8 0.021848 0.02497 0.196638 0.004841841404
103	202948 111 4897 43174 2 9 8 0 0 0 0
104	203059 111 4898 43175 2 9 8 4 4 32 128
105	203170 160 4898 43175 2 9 8 0.021849 0.02497 0.196639 0.004841885101
106	203330 111 4898 43175 2 9 8 0 0 0 0
107	203441 111 4899 43176 2 9 8 5 5 40 200
108	203552 160 4899 43176 2 9 8 0.021848 0.02497 0.196638 0.004841841404
109	203712 111 4899 43176 2 9 8 0 0 0 0
110	203823 111 4900 43177 2 9 8 6 6 48 288
111	203934 160 4900 43177 2 9 8 0.021849 0.02497 0.196639 0.004841885101
112	204094 111 4900 43177 2 9 8 0 0 0 0
113	204205 111 4901 43178 2 9 8 7 7 56 392
114	204316 160 4901 43178 2 9 8 0.021849 0.02497 0.196639 0.004841885101
115	204476 111 4901 43178 2 9 8 0 0 0 0

