version 3
run Braking-1-20240820-16:23:52-5727
attr configname Braking
attr datetime 20240820-16:23:52
attr datetimef 20240820-162352
attr experiment Braking
attr inifile omnetpp.ini
attr iterationvars "$nCars=8, $platoonSize=8, $nLanes=1, $ploegH=0.5, $controller=0, $headway=1.2, $leaderHeadway=1.2, $leaderSpeed=100, $beaconInterval=0.1, $priority=4, $packetSize=200, $sController=\"ACC\", $0=2, $1=1.2"
attr iterationvarsd nCars=8/platoonSize=8/nLanes=1/ploegH=0.5/controller=0/headway=1.2/leaderHeadway=1.2/leaderSpeed=100/beaconInterval=0.1/priority=4/packetSize=200/sController=ACC/2/1.2
attr iterationvarsf nCars=8,platoonSize=8,nLanes=1,ploegH=0.5,controller=0,headway=1.2,leaderHeadway=1.2,leaderSpeed=100,beaconInterval=0.1,priority=4,packetSize=200,sController=ACC,2,1.2-
attr measurement "$nCars=8, $platoonSize=8, $nLanes=1, $ploegH=0.5, $controller=0, $headway=1.2, $leaderHeadway=1.2, $leaderSpeed=100, $beaconInterval=0.1, $priority=4, $packetSize=200, $sController=\"ACC\", $0=2, $1=1.2"
attr network Platooning
attr processid 5727
attr repetition 0
attr replication #0
attr resultdir results
attr runnumber 1
attr seedset 0
itervar beaconInterval 0.1
itervar controller 0
itervar headway 1.2
itervar leaderHeadway 1.2
itervar leaderSpeed 100
itervar nCars 8
itervar nLanes 1
itervar packetSize 200
itervar platoonSize 8
itervar ploegH 0.5
itervar priority 4
itervar sController "\"ACC\""
config image-path ../../../veins/images
config *.manager.command "\"sumo-gui\""
config *.node[*].scenario_type "\"BrakingScenario\""
config *.node[*].scenario.leaderOscillationFrequency "0.2 Hz"
config *.node[*].scenario.brakingDeceleration "8 mpsps"
config *.node[*].scenario.startBraking "5 s"
config output-vector-file results/Braking_0_1.2_0.vec
config output-scalar-file results/Braking_0_1.2_0.sca
config cmdenv-express-mode true
config cmdenv-autoflush true
config cmdenv-status-frequency 10s
config num-rngs 6
config network Platooning
config debug-on-errors true
config print-undisposed true
config *.playgroundSizeX 65000m
config *.playgroundSizeY 25000m
config *.playgroundSizeZ 50m
config sim-time-limit "60 s"
config *.annotations.draw false
config *.obstacles.debug false
config *.world.useTorus false
config *.world.use2D false
config *.manager.updateInterval 0.01s
config *.manager.host "\"localhost\""
config *.manager.moduleType "\"org.car2x.plexe.PlatoonCar\""
config *.manager.moduleName "\"node\""
config *.manager.moduleDisplayString "\"\""
config *.manager.autoShutdown true
config *.manager.margin 25
config *.connectionManager.sendDirect true
config *.connectionManager.maxInterfDist 2600m
config *.connectionManager.drawMaxIntfDist false
config *.**.nic.mac1609_4.useServiceChannel false
config *.**.nic.mac1609_4.txPower 100mW
config *.**.nic.mac1609_4.bitrate 6Mbps
config *.**.nic.mac1609_4.useAcks true
config *.**.nic.mac1609_4.ackErrorRate 0.0
config *.**.nic.mac1609_4.frameErrorRate 0.0
config *.**.nic.phy80211p.minPowerLevel -94dBm
config *.**.nic.phy80211p.maxTXPower 100mW
config *.**.nic.phy80211p.useNoiseFloor true
config *.**.nic.phy80211p.noiseFloor -95dBm
config *.**.nic.phy80211p.decider "xmldoc(\"config.xml\")"
config *.**.nic.phy80211p.analogueModels "xmldoc(\"config.xml\")"
config *.**.nic.phy80211p.usePropagationDelay true
config *.node[*].mobility.x 0
config *.node[*].mobility.y 0
config *.node[*].mobility.z 1.895
config seed-set 0
config **.seed 0
config *.node[*].prot.rng-0 2
config *.node[*].appl.rng-0 3
config *.node[*].scenario.rng-0 4
config **.traffic.rng-0 5
config *.manager.configFile "\"./sumocfg/freeway.sumo.cfg\""
config *.manager.launchConfig "xmldoc(\"./sumocfg/freeway.launchd.xml\")"
config **.numberOfCars 8
config **.numberOfCarsPerPlatoon 8
config **.numberOfLanes 1
config *.node[*].helper_type "\"PositionHelper\""
config *.node[*].scenario.caccC1 0.5
config *.node[*].scenario.caccXi 1
config *.node[*].scenario.caccOmegaN "0.2 Hz"
config *.node[*].scenario.caccSpacing "5 m"
config *.node[*].scenario.engineTau "0.5 s"
config *.node[*].scenario.ploegH 0.5s
config *.node[*].scenario.ploegKp 0.2
config *.node[*].scenario.ploegKd 0.7
config *.node[*].scenario.useRealisticEngine false
config *.node[*].scenario.useControllerAcceleration true
config *.node[*].scenario.nLanes 1
config **.numericController 0
config **.headway 1.2s
config *.node[*].scenario.accHeadway 1.2s
config *.node[*].scenario.leaderHeadway 1.2s
config *.node[*].scenario.leaderSpeed 100kmph
config *.node[*].appl_type "\"SimplePlatooningApp\""
config *.node[*].appl.*.scalar-recording true
config *.node[*].appl.*.vector-recording true
config *.node[*].protocol_type "\"SimplePlatooningBeaconing\""
config *.node[*].prot.*.scalar-recording true
config *.node[*].prot.*.vector-recording true
config *.node[*].prot.beaconingInterval 0.1s
config *.node[*].prot.priority 4
config *.node[*].prot.packetSize 200
config **.traffic_type "\"PlatoonsTrafficManager\""
config **.traffic.platoonInsertTime "1 s"
config **.traffic.platoonInsertSpeed 100kmph
config **.traffic.nCars 8
config **.traffic.platoonSize 8
config **.traffic.nLanes 1
config **.traffic.platooningVType "\"vtypeauto\""
config **.traffic.controller "\"ACC\""
config **.traffic.platoonInsertDistance 2m
config **.traffic.platoonInsertHeadway 1.2s
config **.traffic.platoonLeaderHeadway 1.2s
config **.scalar-recording false
config **.vector-recording false

vector 0 Platooning.node[0].appl distance ETV
vector 1 Platooning.node[0].appl relativeSpeed ETV
vector 2 Platooning.node[0].appl nodeId ETV
vector 3 Platooning.node[0].appl acceleration ETV
vector 4 Platooning.node[0].appl controllerAcceleration ETV
vector 5 Platooning.node[0].appl speed ETV
vector 6 Platooning.node[0].appl posx ETV
vector 7 Platooning.node[0].appl posy ETV
vector 8 Platooning.node[1].appl distance ETV
vector 9 Platooning.node[1].appl relativeSpeed ETV
vector 10 Platooning.node[1].appl nodeId ETV
vector 11 Platooning.node[1].appl acceleration ETV
vector 12 Platooning.node[1].appl controllerAcceleration ETV
vector 13 Platooning.node[1].appl speed ETV
vector 14 Platooning.node[1].appl posx ETV
vector 15 Platooning.node[1].appl posy ETV
vector 16 Platooning.node[2].appl distance ETV
vector 17 Platooning.node[2].appl relativeSpeed ETV
vector 18 Platooning.node[2].appl nodeId ETV
vector 19 Platooning.node[2].appl acceleration ETV
vector 20 Platooning.node[2].appl controllerAcceleration ETV
vector 21 Platooning.node[2].appl speed ETV
vector 22 Platooning.node[2].appl posx ETV
vector 23 Platooning.node[2].appl posy ETV
vector 24 Platooning.node[3].appl distance ETV
vector 25 Platooning.node[3].appl relativeSpeed ETV
vector 26 Platooning.node[3].appl nodeId ETV
vector 27 Platooning.node[3].appl acceleration ETV
vector 28 Platooning.node[3].appl controllerAcceleration ETV
vector 29 Platooning.node[3].appl speed ETV
vector 30 Platooning.node[3].appl posx ETV
vector 31 Platooning.node[3].appl posy ETV
vector 32 Platooning.node[4].appl distance ETV
vector 33 Platooning.node[4].appl relativeSpeed ETV
vector 34 Platooning.node[4].appl nodeId ETV
vector 35 Platooning.node[4].appl acceleration ETV
vector 36 Platooning.node[4].appl controllerAcceleration ETV
vector 37 Platooning.node[4].appl speed ETV
vector 38 Platooning.node[4].appl posx ETV
vector 39 Platooning.node[4].appl posy ETV
vector 40 Platooning.node[5].appl distance ETV
vector 41 Platooning.node[5].appl relativeSpeed ETV
vector 42 Platooning.node[5].appl nodeId ETV
vector 43 Platooning.node[5].appl acceleration ETV
vector 44 Platooning.node[5].appl controllerAcceleration ETV
vector 45 Platooning.node[5].appl speed ETV
vector 46 Platooning.node[5].appl posx ETV
vector 47 Platooning.node[5].appl posy ETV
vector 48 Platooning.node[6].appl distance ETV
vector 49 Platooning.node[6].appl relativeSpeed ETV
vector 50 Platooning.node[6].appl nodeId ETV
vector 51 Platooning.node[6].appl acceleration ETV
vector 52 Platooning.node[6].appl controllerAcceleration ETV
vector 53 Platooning.node[6].appl speed ETV
vector 54 Platooning.node[6].appl posx ETV
vector 55 Platooning.node[6].appl posy ETV
vector 56 Platooning.node[7].appl distance ETV
vector 57 Platooning.node[7].appl relativeSpeed ETV
vector 58 Platooning.node[7].appl nodeId ETV
vector 59 Platooning.node[7].appl acceleration ETV
vector 60 Platooning.node[7].appl controllerAcceleration ETV
vector 61 Platooning.node[7].appl speed ETV
vector 62 Platooning.node[7].appl posx ETV
vector 63 Platooning.node[7].appl posy ETV
vector 64 Platooning.node[3].prot frontDelay ETV
vector 65 Platooning.node[3].prot frontDelayId ETV
vector 66 Platooning.node[2].prot frontDelay ETV
vector 67 Platooning.node[2].prot frontDelayId ETV
vector 68 Platooning.node[7].prot frontDelay ETV
vector 69 Platooning.node[7].prot frontDelayId ETV
vector 70 Platooning.node[1].prot leaderDelay ETV
vector 71 Platooning.node[1].prot leaderDelayId ETV
vector 72 Platooning.node[1].prot frontDelay ETV
vector 73 Platooning.node[1].prot frontDelayId ETV
vector 74 Platooning.node[2].prot leaderDelay ETV
vector 75 Platooning.node[2].prot leaderDelayId ETV
vector 76 Platooning.node[3].prot leaderDelay ETV
vector 77 Platooning.node[3].prot leaderDelayId ETV
vector 78 Platooning.node[4].prot leaderDelay ETV
vector 79 Platooning.node[4].prot leaderDelayId ETV
vector 80 Platooning.node[5].prot leaderDelay ETV
vector 81 Platooning.node[5].prot leaderDelayId ETV
vector 82 Platooning.node[6].prot leaderDelay ETV
vector 83 Platooning.node[6].prot leaderDelayId ETV
vector 84 Platooning.node[7].prot leaderDelay ETV
vector 85 Platooning.node[7].prot leaderDelayId ETV
vector 86 Platooning.node[5].prot frontDelay ETV
vector 87 Platooning.node[5].prot frontDelayId ETV
vector 88 Platooning.node[4].prot frontDelay ETV
vector 89 Platooning.node[4].prot frontDelayId ETV
vector 90 Platooning.node[6].prot frontDelay ETV
vector 91 Platooning.node[6].prot frontDelayId ETV
vector 92 Platooning.node[0].prot nodeId ETV
vector 93 Platooning.node[0].prot busyTime ETV
vector 94 Platooning.node[0].prot collisions ETV
vector 95 Platooning.node[1].prot nodeId ETV
vector 96 Platooning.node[1].prot busyTime ETV
vector 97 Platooning.node[1].prot collisions ETV
vector 98 Platooning.node[2].prot nodeId ETV
vector 99 Platooning.node[2].prot busyTime ETV
vector 100 Platooning.node[2].prot collisions ETV
vector 101 Platooning.node[3].prot nodeId ETV
vector 102 Platooning.node[3].prot busyTime ETV
vector 103 Platooning.node[3].prot collisions ETV
vector 104 Platooning.node[4].prot nodeId ETV
vector 105 Platooning.node[4].prot busyTime ETV
vector 106 Platooning.node[4].prot collisions ETV
vector 107 Platooning.node[5].prot nodeId ETV
vector 108 Platooning.node[5].prot busyTime ETV
vector 109 Platooning.node[5].prot collisions ETV
vector 110 Platooning.node[6].prot nodeId ETV
vector 111 Platooning.node[6].prot busyTime ETV
vector 112 Platooning.node[6].prot collisions ETV
vector 113 Platooning.node[7].prot nodeId ETV
vector 114 Platooning.node[7].prot busyTime ETV
vector 115 Platooning.node[7].prot collisions ETV
0	113	1.11	-1
0	659	1.21	-1
0	1205	1.31	-1
0	1751	1.41	-1
0	2297	1.51	-1
0	2843	1.61	-1
0	3389	1.71	-1
0	3935	1.81	-1
0	4481	1.91	-1
0	5035	2.01	-1
0	5581	2.11	-1
0	6127	2.21	-1
0	6673	2.31	-1
0	7219	2.41	-1
0	7765	2.51	-1
0	8311	2.61	-1
0	8857	2.71	-1
0	9403	2.81	-1
0	9949	2.91	-1
0	10503	3.01	-1
0	11049	3.11	-1
0	11595	3.21	-1
0	12141	3.31	-1
0	12687	3.41	-1
0	13233	3.51	-1
0	13779	3.61	-1
0	14325	3.71	-1
0	14871	3.81	-1
0	15417	3.91	-1
0	15971	4.01	-1
0	16517	4.11	-1
0	17063	4.21	-1
0	17609	4.31	-1
0	18155	4.41	-1
0	18701	4.51	-1
0	19247	4.61	-1
0	19793	4.71	-1
0	20339	4.81	-1
0	20885	4.91	-1
0	21440	5.01	-1
0	21986	5.11	-1
0	22532	5.21	-1
0	23078	5.31	-1
0	23624	5.41	-1
0	24170	5.51	-1
0	24716	5.61	-1
0	25262	5.71	-1
0	25808	5.81	-1
0	26354	5.91	-1
0	26908	6.01	-1
0	27454	6.11	-1
0	28000	6.21	-1
0	28546	6.31	-1
0	29092	6.41	-1
0	29638	6.51	-1
0	30184	6.61	-1
0	30730	6.71	-1
0	31276	6.81	-1
0	31822	6.91	-1
0	32376	7.01	-1
0	32922	7.11	-1
0	33468	7.21	-1
0	34014	7.31	-1
0	34560	7.41	-1
0	35106	7.51	-1
0	35652	7.61	-1
0	36198	7.71	-1
0	36744	7.81	-1
0	37290	7.91	-1
0	37844	8.01	-1
0	38390	8.11	-1
0	38936	8.21	-1
0	39482	8.31	-1
0	40028	8.41	-1
0	40574	8.51	-1
0	41120	8.61	-1
0	41666	8.71	-1
0	42212	8.81	-1
0	42758	8.91	-1
0	43312	9.01	-1
0	43858	9.11	-1
0	44404	9.21	-1
0	44950	9.31	-1
0	45496	9.41	-1
0	46042	9.51	-1
0	46588	9.61	-1
0	47134	9.71	-1
0	47680	9.81	-1
0	48226	9.91	-1
0	48780	10.01	-1
0	49326	10.11	-1
0	49872	10.21	-1
0	50418	10.31	-1
0	50964	10.41	-1
0	51510	10.51	-1
0	52056	10.61	-1
0	52602	10.71	-1
0	53148	10.81	-1
0	53694	10.91	-1
0	54248	11.01	-1
0	54794	11.11	-1
0	55340	11.21	-1
0	55886	11.31	-1
0	56432	11.41	-1
0	56978	11.51	-1
0	57524	11.61	-1
0	58070	11.71	-1
0	58616	11.81	-1
0	59162	11.91	-1
0	59716	12.01	-1
0	60262	12.11	-1
0	60808	12.21	-1
0	61354	12.31	-1
0	61900	12.41	-1
0	62446	12.51	-1
0	62992	12.61	-1
0	63538	12.71	-1
0	64084	12.81	-1
0	64630	12.91	-1
0	65184	13.01	-1
0	65730	13.11	-1
0	66276	13.21	-1
0	66822	13.31	-1
0	67368	13.41	-1
0	67914	13.51	-1
0	68460	13.61	-1
0	69006	13.71	-1
0	69552	13.81	-1
0	70098	13.91	-1
0	70652	14.01	-1
0	71198	14.11	-1
0	71744	14.21	-1
0	72290	14.31	-1
0	72836	14.41	-1
0	73382	14.51	-1
0	73928	14.61	-1
0	74474	14.71	-1
0	75020	14.81	-1
0	75566	14.91	-1
0	76120	15.01	-1
0	76666	15.11	-1
0	77212	15.21	-1
0	77758	15.31	-1
0	78304	15.41	-1
0	78850	15.51	-1
0	79396	15.61	-1
0	79942	15.71	-1
0	80488	15.81	-1
0	81034	15.91	-1
0	81588	16.01	-1
0	82134	16.11	-1
0	82680	16.21	-1
0	83226	16.31	-1
0	83772	16.41	-1
0	84318	16.51	-1
0	84864	16.61	-1
0	85410	16.71	-1
0	85956	16.81	-1
0	86502	16.91	-1
0	87056	17.01	-1
0	87602	17.11	-1
0	88148	17.21	-1
0	88694	17.31	-1
0	89240	17.41	-1
0	89786	17.51	-1
0	90332	17.61	-1
0	90878	17.71	-1
0	91424	17.81	-1
0	91970	17.91	-1
0	92524	18.01	-1
0	93070	18.11	-1
0	93616	18.21	-1
0	94162	18.31	-1
0	94708	18.41	-1
0	95254	18.51	-1
0	95800	18.61	-1
0	96346	18.71	-1
0	96892	18.81	-1
0	97438	18.91	-1
0	97992	19.01	-1
0	98538	19.11	-1
0	99084	19.21	-1
0	99630	19.31	-1
0	100176	19.41	-1
0	100722	19.51	-1
0	101268	19.61	-1
0	101814	19.71	-1
0	102360	19.81	-1
0	102906	19.91	-1
0	103460	20.01	-1
0	104006	20.11	-1
0	104552	20.21	-1
0	105098	20.31	-1
0	105644	20.41	-1
0	106190	20.51	-1
0	106736	20.61	-1
0	107282	20.71	-1
0	107828	20.81	-1
0	108374	20.91	-1
0	108928	21.01	-1
0	109474	21.11	-1
0	110020	21.21	-1
0	110566	21.31	-1
0	111112	21.41	-1
0	111658	21.51	-1
0	112204	21.61	-1
0	112750	21.71	-1
0	113296	21.81	-1
0	113842	21.91	-1
0	114396	22.01	-1
0	114942	22.11	-1
0	115488	22.21	-1
0	116034	22.31	-1
0	116580	22.41	-1
0	117126	22.51	-1
0	117672	22.61	-1
0	118218	22.71	-1
0	118764	22.81	-1
0	119310	22.91	-1
0	119864	23.01	-1
0	120410	23.11	-1
0	120956	23.21	-1
0	121502	23.31	-1
0	122048	23.41	-1
0	122594	23.51	-1
0	123140	23.61	-1
0	123686	23.71	-1
0	124232	23.81	-1
0	124778	23.91	-1
0	125332	24.01	-1
0	125878	24.11	-1
0	126424	24.21	-1
0	126970	24.31	-1
0	127516	24.41	-1
0	128062	24.51	-1
0	128608	24.61	-1
0	129154	24.71	-1
0	129700	24.81	-1
0	130246	24.91	-1
0	130800	25.01	-1
0	131346	25.11	-1
0	131892	25.21	-1
0	132438	25.31	-1
0	132984	25.41	-1
0	133530	25.51	-1
0	134076	25.61	-1
0	134622	25.71	-1
0	135168	25.81	-1
0	135714	25.91	-1
0	136268	26.01	-1
0	136814	26.11	-1
0	137360	26.21	-1
0	137906	26.31	-1
0	138452	26.41	-1
0	138998	26.51	-1
0	139544	26.61	-1
0	140090	26.71	-1
0	140636	26.81	-1
0	141182	26.91	-1
0	141736	27.01	-1
0	142282	27.11	-1
0	142828	27.21	-1
0	143374	27.31	-1
0	143920	27.41	-1
0	144466	27.51	-1
0	145012	27.61	-1
0	145558	27.71	-1
0	146104	27.81	-1
0	146650	27.91	-1
0	147204	28.01	-1
0	147750	28.11	-1
0	148296	28.21	-1
0	148842	28.31	-1
0	149388	28.41	-1
0	149934	28.51	-1
0	150480	28.61	-1
0	151026	28.71	-1
0	151572	28.81	-1
0	152118	28.91	-1
0	152672	29.01	-1
0	153218	29.11	-1
0	153764	29.21	-1
0	154310	29.31	-1
0	154856	29.41	-1
0	155402	29.51	-1
0	155948	29.61	-1
0	156494	29.71	-1
0	157040	29.81	-1
0	157586	29.91	-1
0	158140	30.01	-1
0	158686	30.11	-1
0	159232	30.21	-1
0	159778	30.31	-1
0	160324	30.41	-1
0	160870	30.51	-1
0	161416	30.61	-1
0	161962	30.71	-1
0	162508	30.81	-1
0	163054	30.91	-1
0	163608	31.01	-1
0	164154	31.11	-1
0	164700	31.21	-1
0	165246	31.31	-1
0	165792	31.41	-1
0	166338	31.51	-1
0	166884	31.61	-1
0	167430	31.71	-1
0	167976	31.81	-1
0	168522	31.91	-1
0	169076	32.01	-1
0	169622	32.11	-1
0	170168	32.21	-1
0	170714	32.31	-1
0	171260	32.41	-1
0	171806	32.51	-1
0	172352	32.61	-1
0	172898	32.71	-1
0	173444	32.81	-1
0	173990	32.91	-1
0	174544	33.01	-1
0	175090	33.11	-1
0	175636	33.21	-1
0	176182	33.31	-1
0	176728	33.41	-1
0	177274	33.51	-1
0	177820	33.61	-1
0	178366	33.71	-1
0	178912	33.81	-1
0	179458	33.91	-1
0	180012	34.01	-1
0	180558	34.11	-1
0	181104	34.21	-1
0	181650	34.31	-1
0	182196	34.41	-1
0	182742	34.51	-1
0	183288	34.61	-1
0	183834	34.71	-1
0	184380	34.81	-1
0	184926	34.91	-1
0	185480	35.01	-1
0	186026	35.11	-1
0	186572	35.21	-1
0	187118	35.31	-1
0	187664	35.41	-1
0	188210	35.51	-1
0	188756	35.61	-1
0	189302	35.71	-1
0	189848	35.81	-1
0	190394	35.91	-1
0	190948	36.01	-1
0	191494	36.11	-1
0	192040	36.21	-1
0	192586	36.31	-1
0	193132	36.41	-1
0	193678	36.51	-1
0	194224	36.61	-1
0	194770	36.71	-1
0	195316	36.81	-1
0	195862	36.91	-1
0	196416	37.01	-1
0	196962	37.11	-1
0	197508	37.21	-1
0	198054	37.31	-1
0	198600	37.41	-1
0	199146	37.51	-1
0	199692	37.61	-1
0	200238	37.71	-1
0	200784	37.81	-1
0	201330	37.91	-1
0	201884	38.01	-1
0	202430	38.11	-1
0	202976	38.21	-1
0	203522	38.31	-1
0	204068	38.41	-1
0	204614	38.51	-1
0	205160	38.61	-1
0	205706	38.71	-1
0	206252	38.81	-1
0	206798	38.91	-1
0	207352	39.01	-1
0	207898	39.11	-1
0	208444	39.21	-1
0	208990	39.31	-1
0	209536	39.41	-1
0	210082	39.51	-1
0	210628	39.61	-1
0	211174	39.71	-1
0	211720	39.81	-1
0	212266	39.91	-1
0	212820	40.01	-1
0	213366	40.11	-1
0	213912	40.21	-1
0	214458	40.31	-1
0	215004	40.41	-1
0	215550	40.51	-1
0	216096	40.61	-1
0	216642	40.71	-1
0	217188	40.81	-1
0	217734	40.91	-1
0	218288	41.01	-1
0	218834	41.11	-1
0	219380	41.21	-1
0	219926	41.31	-1
0	220472	41.41	-1
0	221018	41.51	-1
0	221564	41.61	-1
0	222110	41.71	-1
0	222656	41.81	-1
0	223202	41.91	-1
0	223756	42.01	-1
0	224302	42.11	-1
0	224848	42.21	-1
0	225394	42.31	-1
0	225940	42.41	-1
0	226486	42.51	-1
0	227032	42.61	-1
0	227578	42.71	-1
0	228124	42.81	-1
0	228670	42.91	-1
0	229224	43.01	-1
0	229770	43.11	-1
0	230316	43.21	-1
0	230862	43.31	-1
0	231408	43.41	-1
0	231954	43.51	-1
0	232500	43.61	-1
0	233046	43.71	-1
0	233592	43.81	-1
0	234138	43.91	-1
0	234692	44.01	-1
0	235238	44.11	-1
0	235784	44.21	-1
0	236330	44.31	-1
0	236876	44.41	-1
0	237422	44.51	-1
0	237968	44.61	-1
0	238514	44.71	-1
0	239060	44.81	-1
0	239606	44.91	-1
0	240160	45.01	-1
0	240706	45.11	-1
0	241252	45.21	-1
0	241798	45.31	-1
0	242344	45.41	-1
0	242890	45.51	-1
0	243436	45.61	-1
0	243982	45.71	-1
0	244528	45.81	-1
0	245074	45.91	-1
0	245628	46.01	-1
0	246174	46.11	-1
0	246720	46.21	-1
0	247266	46.31	-1
0	247812	46.41	-1
0	248358	46.51	-1
0	248904	46.61	-1
0	249450	46.71	-1
0	249996	46.81	-1
0	250542	46.91	-1
0	251096	47.01	-1
0	251642	47.11	-1
0	252188	47.21	-1
0	252734	47.31	-1
0	253280	47.41	-1
0	253826	47.51	-1
0	254372	47.61	-1
0	254918	47.71	-1
0	255464	47.81	-1
0	256010	47.91	-1
0	256564	48.01	-1
0	257110	48.11	-1
0	257656	48.21	-1
0	258202	48.31	-1
0	258748	48.41	-1
0	259294	48.51	-1
0	259840	48.61	-1
0	260386	48.71	-1
0	260932	48.81	-1
0	261478	48.91	-1
0	262032	49.01	-1
0	262578	49.11	-1
0	263124	49.21	-1
0	263670	49.31	-1
0	264216	49.41	-1
0	264762	49.51	-1
0	265308	49.61	-1
0	265854	49.71	-1
0	266400	49.81	-1
0	266946	49.91	-1
0	267500	50.01	-1
0	268046	50.11	-1
0	268592	50.21	-1
0	269138	50.31	-1
0	269684	50.41	-1
0	270230	50.51	-1
0	270776	50.61	-1
0	271322	50.71	-1
0	271868	50.81	-1
0	272414	50.91	-1
0	272968	51.01	-1
0	273514	51.11	-1
0	274060	51.21	-1
0	274606	51.31	-1
0	275152	51.41	-1
0	275698	51.51	-1
0	276244	51.61	-1
0	276790	51.71	-1
0	277336	51.81	-1
0	277882	51.91	-1
0	278436	52.01	-1
0	278982	52.11	-1
0	279528	52.21	-1
0	280074	52.31	-1
0	280620	52.41	-1
0	281166	52.51	-1
0	281712	52.61	-1
0	282258	52.71	-1
0	282804	52.81	-1
0	283350	52.91	-1
0	283904	53.01	-1
0	284450	53.11	-1
0	284996	53.21	-1
0	285542	53.31	-1
0	286088	53.41	-1
0	286634	53.51	-1
0	287180	53.61	-1
0	287726	53.71	-1
0	288272	53.81	-1
0	288818	53.91	-1
0	289372	54.01	-1
0	289918	54.11	-1
0	290464	54.21	-1
0	291010	54.31	-1
0	291556	54.41	-1
0	292102	54.51	-1
0	292648	54.61	-1
0	293194	54.71	-1
0	293740	54.81	-1
0	294286	54.91	-1
0	294840	55.01	-1
0	295386	55.11	-1
0	295932	55.21	-1
0	296478	55.31	-1
0	297024	55.41	-1
0	297570	55.51	-1
0	298116	55.61	-1
0	298662	55.71	-1
0	299208	55.81	-1
0	299754	55.91	-1
0	300308	56.01	-1
0	300854	56.11	-1
0	301400	56.21	-1
0	301946	56.31	-1
0	302492	56.41	-1
0	303038	56.51	-1
0	303584	56.61	-1
0	304130	56.71	-1
0	304676	56.81	-1
0	305222	56.91	-1
0	305776	57.01	-1
0	306322	57.11	-1
0	306868	57.21	-1
0	307414	57.31	-1
0	307960	57.41	-1
0	308506	57.51	-1
0	309052	57.61	-1
0	309598	57.71	-1
0	310144	57.81	-1
0	310690	57.91	-1
0	311244	58.01	-1
0	311790	58.11	-1
0	312336	58.21	-1
0	312882	58.31	-1
0	313428	58.41	-1
0	313974	58.51	-1
0	314520	58.61	-1
0	315066	58.71	-1
0	315612	58.81	-1
0	316158	58.91	-1
0	316712	59.01	-1
0	317258	59.11	-1
0	317804	59.21	-1
0	318350	59.31	-1
0	318896	59.41	-1
0	319442	59.51	-1
0	319988	59.61	-1
0	320534	59.71	-1
0	321080	59.81	-1
0	321626	59.91	-1
1	113	1.11	0
1	659	1.21	0
1	1205	1.31	0
1	1751	1.41	0
1	2297	1.51	0
1	2843	1.61	0
1	3389	1.71	0
1	3935	1.81	0
1	4481	1.91	0
1	5035	2.01	0
1	5581	2.11	0
1	6127	2.21	0
1	6673	2.31	0
1	7219	2.41	0
1	7765	2.51	0
1	8311	2.61	0
1	8857	2.71	0
1	9403	2.81	0
1	9949	2.91	0
1	10503	3.01	0
1	11049	3.11	0
1	11595	3.21	0
1	12141	3.31	0
1	12687	3.41	0
1	13233	3.51	0
1	13779	3.61	0
1	14325	3.71	0
1	14871	3.81	0
1	15417	3.91	0
1	15971	4.01	0
1	16517	4.11	0
1	17063	4.21	0
1	17609	4.31	0
1	18155	4.41	0
1	18701	4.51	0
1	19247	4.61	0
1	19793	4.71	0
1	20339	4.81	0
1	20885	4.91	0
1	21440	5.01	0
1	21986	5.11	0
1	22532	5.21	0
1	23078	5.31	0
1	23624	5.41	0
1	24170	5.51	0
1	24716	5.61	0
1	25262	5.71	0
1	25808	5.81	0
1	26354	5.91	0
1	26908	6.01	0
1	27454	6.11	0
1	28000	6.21	0
1	28546	6.31	0
1	29092	6.41	0
1	29638	6.51	0
1	30184	6.61	0
1	30730	6.71	0
1	31276	6.81	0
1	31822	6.91	0
1	32376	7.01	0
1	32922	7.11	0
1	33468	7.21	0
1	34014	7.31	0
1	34560	7.41	0
1	35106	7.51	0
1	35652	7.61	0
1	36198	7.71	0
1	36744	7.81	0
1	37290	7.91	0
1	37844	8.01	0
1	38390	8.11	0
1	38936	8.21	0
1	39482	8.31	0
1	40028	8.41	0
1	40574	8.51	0
1	41120	8.61	0
1	41666	8.71	0
1	42212	8.81	0
1	42758	8.91	0
1	43312	9.01	0
1	43858	9.11	0
1	44404	9.21	0
1	44950	9.31	0
1	45496	9.41	0
1	46042	9.51	0
1	46588	9.61	0
1	47134	9.71	0
1	47680	9.81	0
1	48226	9.91	0
1	48780	10.01	0
1	49326	10.11	0
1	49872	10.21	0
1	50418	10.31	0
1	50964	10.41	0
1	51510	10.51	0
1	52056	10.61	0
1	52602	10.71	0
1	53148	10.81	0
1	53694	10.91	0
1	54248	11.01	0
1	54794	11.11	0
1	55340	11.21	0
1	55886	11.31	0
1	56432	11.41	0
1	56978	11.51	0
1	57524	11.61	0
1	58070	11.71	0
1	58616	11.81	0
1	59162	11.91	0
1	59716	12.01	0
1	60262	12.11	0
1	60808	12.21	0
1	61354	12.31	0
1	61900	12.41	0
1	62446	12.51	0
1	62992	12.61	0
1	63538	12.71	0
1	64084	12.81	0
1	64630	12.91	0
1	65184	13.01	0
1	65730	13.11	0
1	66276	13.21	0
1	66822	13.31	0
1	67368	13.41	0
1	67914	13.51	0
1	68460	13.61	0
1	69006	13.71	0
1	69552	13.81	0
1	70098	13.91	0
1	70652	14.01	0
1	71198	14.11	0
1	71744	14.21	0
1	72290	14.31	0
1	72836	14.41	0
1	73382	14.51	0
1	73928	14.61	0
1	74474	14.71	0
1	75020	14.81	0
1	75566	14.91	0
1	76120	15.01	0
1	76666	15.11	0
1	77212	15.21	0
1	77758	15.31	0
1	78304	15.41	0
1	78850	15.51	0
1	79396	15.61	0
1	79942	15.71	0
1	80488	15.81	0
1	81034	15.91	0
1	81588	16.01	0
1	82134	16.11	0
1	82680	16.21	0
1	83226	16.31	0
1	83772	16.41	0
1	84318	16.51	0
1	84864	16.61	0
1	85410	16.71	0
1	85956	16.81	0
1	86502	16.91	0
1	87056	17.01	0
1	87602	17.11	0
1	88148	17.21	0
1	88694	17.31	0
1	89240	17.41	0
1	89786	17.51	0
1	90332	17.61	0
1	90878	17.71	0
1	91424	17.81	0
1	91970	17.91	0
1	92524	18.01	0
1	93070	18.11	0
1	93616	18.21	0
1	94162	18.31	0
1	94708	18.41	0
1	95254	18.51	0
1	95800	18.61	0
1	96346	18.71	0
1	96892	18.81	0
1	97438	18.91	0
1	97992	19.01	0
1	98538	19.11	0
1	99084	19.21	0
1	99630	19.31	0
1	100176	19.41	0
1	100722	19.51	0
1	101268	19.61	0
1	101814	19.71	0
1	102360	19.81	0
1	102906	19.91	0
1	103460	20.01	0
1	104006	20.11	0
1	104552	20.21	0
1	105098	20.31	0
1	105644	20.41	0
1	106190	20.51	0
1	106736	20.61	0
1	107282	20.71	0
1	107828	20.81	0
1	108374	20.91	0
1	108928	21.01	0
1	109474	21.11	0
1	110020	21.21	0
1	110566	21.31	0
1	111112	21.41	0
1	111658	21.51	0
1	112204	21.61	0
1	112750	21.71	0
1	113296	21.81	0
1	113842	21.91	0
1	114396	22.01	0
1	114942	22.11	0
1	115488	22.21	0
1	116034	22.31	0
1	116580	22.41	0
1	117126	22.51	0
1	117672	22.61	0
1	118218	22.71	0
1	118764	22.81	0
1	119310	22.91	0
1	119864	23.01	0
1	120410	23.11	0
1	120956	23.21	0
1	121502	23.31	0
1	122048	23.41	0
1	122594	23.51	0
1	123140	23.61	0
1	123686	23.71	0
1	124232	23.81	0
1	124778	23.91	0
1	125332	24.01	0
1	125878	24.11	0
1	126424	24.21	0
1	126970	24.31	0
1	127516	24.41	0
1	128062	24.51	0
1	128608	24.61	0
1	129154	24.71	0
1	129700	24.81	0
1	130246	24.91	0
1	130800	25.01	0
1	131346	25.11	0
1	131892	25.21	0
1	132438	25.31	0
1	132984	25.41	0
1	133530	25.51	0
1	134076	25.61	0
1	134622	25.71	0
1	135168	25.81	0
1	135714	25.91	0
1	136268	26.01	0
1	136814	26.11	0
1	137360	26.21	0
1	137906	26.31	0
1	138452	26.41	0
1	138998	26.51	0
1	139544	26.61	0
1	140090	26.71	0
1	140636	26.81	0
1	141182	26.91	0
1	141736	27.01	0
1	142282	27.11	0
1	142828	27.21	0
1	143374	27.31	0
1	143920	27.41	0
1	144466	27.51	0
1	145012	27.61	0
1	145558	27.71	0
1	146104	27.81	0
1	146650	27.91	0
1	147204	28.01	0
1	147750	28.11	0
1	148296	28.21	0
1	148842	28.31	0
1	149388	28.41	0
1	149934	28.51	0
1	150480	28.61	0
1	151026	28.71	0
1	151572	28.81	0
1	152118	28.91	0
1	152672	29.01	0
1	153218	29.11	0
1	153764	29.21	0
1	154310	29.31	0
1	154856	29.41	0
1	155402	29.51	0
1	155948	29.61	0
1	156494	29.71	0
1	157040	29.81	0
1	157586	29.91	0
1	158140	30.01	0
1	158686	30.11	0
1	159232	30.21	0
1	159778	30.31	0
1	160324	30.41	0
1	160870	30.51	0
1	161416	30.61	0
1	161962	30.71	0
1	162508	30.81	0
1	163054	30.91	0
1	163608	31.01	0
1	164154	31.11	0
1	164700	31.21	0
1	165246	31.31	0
1	165792	31.41	0
1	166338	31.51	0
1	166884	31.61	0
1	167430	31.71	0
1	167976	31.81	0
1	168522	31.91	0
1	169076	32.01	0
1	169622	32.11	0
1	170168	32.21	0
1	170714	32.31	0
1	171260	32.41	0
1	171806	32.51	0
1	172352	32.61	0
1	172898	32.71	0
1	173444	32.81	0
1	173990	32.91	0
1	174544	33.01	0
1	175090	33.11	0
1	175636	33.21	0
1	176182	33.31	0
1	176728	33.41	0
1	177274	33.51	0
1	177820	33.61	0
1	178366	33.71	0
1	178912	33.81	0
1	179458	33.91	0
1	180012	34.01	0
1	180558	34.11	0
1	181104	34.21	0
1	181650	34.31	0
1	182196	34.41	0
1	182742	34.51	0
1	183288	34.61	0
1	183834	34.71	0
1	184380	34.81	0
1	184926	34.91	0
1	185480	35.01	0
1	186026	35.11	0
1	186572	35.21	0
1	187118	35.31	0
1	187664	35.41	0
1	188210	35.51	0
1	188756	35.61	0
1	189302	35.71	0
1	189848	35.81	0
1	190394	35.91	0
1	190948	36.01	0
1	191494	36.11	0
1	192040	36.21	0
1	192586	36.31	0
1	193132	36.41	0
1	193678	36.51	0
1	194224	36.61	0
1	194770	36.71	0
1	195316	36.81	0
1	195862	36.91	0
1	196416	37.01	0
1	196962	37.11	0
1	197508	37.21	0
1	198054	37.31	0
1	198600	37.41	0
1	199146	37.51	0
1	199692	37.61	0
1	200238	37.71	0
1	200784	37.81	0
1	201330	37.91	0
1	201884	38.01	0
1	202430	38.11	0
1	202976	38.21	0
1	203522	38.31	0
1	204068	38.41	0
1	204614	38.51	0
1	205160	38.61	0
1	205706	38.71	0
1	206252	38.81	0
1	206798	38.91	0
1	207352	39.01	0
1	207898	39.11	0
1	208444	39.21	0
1	208990	39.31	0
1	209536	39.41	0
1	210082	39.51	0
1	210628	39.61	0
1	211174	39.71	0
1	211720	39.81	0
1	212266	39.91	0
1	212820	40.01	0
1	213366	40.11	0
1	213912	40.21	0
1	214458	40.31	0
1	215004	40.41	0
1	215550	40.51	0
1	216096	40.61	0
1	216642	40.71	0
1	217188	40.81	0
1	217734	40.91	0
1	218288	41.01	0
1	218834	41.11	0
1	219380	41.21	0
1	219926	41.31	0
1	220472	41.41	0
1	221018	41.51	0
1	221564	41.61	0
1	222110	41.71	0
1	222656	41.81	0
1	223202	41.91	0
1	223756	42.01	0
1	224302	42.11	0
1	224848	42.21	0
1	225394	42.31	0
1	225940	42.41	0
1	226486	42.51	0
1	227032	42.61	0
1	227578	42.71	0
1	228124	42.81	0
1	228670	42.91	0
1	229224	43.01	0
1	229770	43.11	0
1	230316	43.21	0
1	230862	43.31	0
1	231408	43.41	0
1	231954	43.51	0
1	232500	43.61	0
1	233046	43.71	0
1	233592	43.81	0
1	234138	43.91	0
1	234692	44.01	0
1	235238	44.11	0
1	235784	44.21	0
1	236330	44.31	0
1	236876	44.41	0
1	237422	44.51	0
1	237968	44.61	0
1	238514	44.71	0
1	239060	44.81	0
1	239606	44.91	0
1	240160	45.01	0
1	240706	45.11	0
1	241252	45.21	0
1	241798	45.31	0
1	242344	45.41	0
1	242890	45.51	0
1	243436	45.61	0
1	243982	45.71	0
1	244528	45.81	0
1	245074	45.91	0
1	245628	46.01	0
1	246174	46.11	0
1	246720	46.21	0
1	247266	46.31	0
1	247812	46.41	0
1	248358	46.51	0
1	248904	46.61	0
1	249450	46.71	0
1	249996	46.81	0
1	250542	46.91	0
1	251096	47.01	0
1	251642	47.11	0
1	252188	47.21	0
1	252734	47.31	0
1	253280	47.41	0
1	253826	47.51	0
1	254372	47.61	0
1	254918	47.71	0
1	255464	47.81	0
1	256010	47.91	0
1	256564	48.01	0
1	257110	48.11	0
1	257656	48.21	0
1	258202	48.31	0
1	258748	48.41	0
1	259294	48.51	0
1	259840	48.61	0
1	260386	48.71	0
1	260932	48.81	0
1	261478	48.91	0
1	262032	49.01	0
1	262578	49.11	0
1	263124	49.21	0
1	263670	49.31	0
1	264216	49.41	0
1	264762	49.51	0
1	265308	49.61	0
1	265854	49.71	0
1	266400	49.81	0
1	266946	49.91	0
1	267500	50.01	0
1	268046	50.11	0
1	268592	50.21	0
1	269138	50.31	0
1	269684	50.41	0
1	270230	50.51	0
1	270776	50.61	0
1	271322	50.71	0
1	271868	50.81	0
1	272414	50.91	0
1	272968	51.01	0
1	273514	51.11	0
1	274060	51.21	0
1	274606	51.31	0
1	275152	51.41	0
1	275698	51.51	0
1	276244	51.61	0
1	276790	51.71	0
1	277336	51.81	0
1	277882	51.91	0
1	278436	52.01	0
1	278982	52.11	0
1	279528	52.21	0
1	280074	52.31	0
1	280620	52.41	0
1	281166	52.51	0
1	281712	52.61	0
1	282258	52.71	0
1	282804	52.81	0
1	283350	52.91	0
1	283904	53.01	0
1	284450	53.11	0
1	284996	53.21	0
1	285542	53.31	0
1	286088	53.41	0
1	286634	53.51	0
1	287180	53.61	0
1	287726	53.71	0
1	288272	53.81	0
1	288818	53.91	0
1	289372	54.01	0
1	289918	54.11	0
1	290464	54.21	0
1	291010	54.31	0
1	291556	54.41	0
1	292102	54.51	0
1	292648	54.61	0
1	293194	54.71	0
1	293740	54.81	0
1	294286	54.91	0
1	294840	55.01	0
1	295386	55.11	0
1	295932	55.21	0
1	296478	55.31	0
1	297024	55.41	0
1	297570	55.51	0
1	298116	55.61	0
1	298662	55.71	0
1	299208	55.81	0
1	299754	55.91	0
1	300308	56.01	0
1	300854	56.11	0
1	301400	56.21	0
1	301946	56.31	0
1	302492	56.41	0
1	303038	56.51	0
1	303584	56.61	0
1	304130	56.71	0
1	304676	56.81	0
1	305222	56.91	0
1	305776	57.01	0
1	306322	57.11	0
1	306868	57.21	0
1	307414	57.31	0
1	307960	57.41	0
1	308506	57.51	0
1	309052	57.61	0
1	309598	57.71	0
1	310144	57.81	0
1	310690	57.91	0
1	311244	58.01	0
1	311790	58.11	0
1	312336	58.21	0
1	312882	58.31	0
1	313428	58.41	0
1	313974	58.51	0
1	314520	58.61	0
1	315066	58.71	0
1	315612	58.81	0
1	316158	58.91	0
1	316712	59.01	0
1	317258	59.11	0
1	317804	59.21	0
1	318350	59.31	0
1	318896	59.41	0
1	319442	59.51	0
1	319988	59.61	0
1	320534	59.71	0
1	321080	59.81	0
1	321626	59.91	0
2	113	1.11	0
2	659	1.21	0
2	1205	1.31	0
2	1751	1.41	0
2	2297	1.51	0
2	2843	1.61	0
2	3389	1.71	0
2	3935	1.81	0
2	4481	1.91	0
2	5035	2.01	0
2	5581	2.11	0
2	6127	2.21	0
2	6673	2.31	0
2	7219	2.41	0
2	7765	2.51	0
2	8311	2.61	0
2	8857	2.71	0
2	9403	2.81	0
2	9949	2.91	0
2	10503	3.01	0
2	11049	3.11	0
2	11595	3.21	0
2	12141	3.31	0
2	12687	3.41	0
2	13233	3.51	0
2	13779	3.61	0
2	14325	3.71	0
2	14871	3.81	0
2	15417	3.91	0
2	15971	4.01	0
2	16517	4.11	0
2	17063	4.21	0
2	17609	4.31	0
2	18155	4.41	0
2	18701	4.51	0
2	19247	4.61	0
2	19793	4.71	0
2	20339	4.81	0
2	20885	4.91	0
2	21440	5.01	0
2	21986	5.11	0
2	22532	5.21	0
2	23078	5.31	0
2	23624	5.41	0
2	24170	5.51	0
2	24716	5.61	0
2	25262	5.71	0
2	25808	5.81	0
2	26354	5.91	0
2	26908	6.01	0
2	27454	6.11	0
2	28000	6.21	0
2	28546	6.31	0
2	29092	6.41	0
2	29638	6.51	0
2	30184	6.61	0
2	30730	6.71	0
2	31276	6.81	0
2	31822	6.91	0
2	32376	7.01	0
2	32922	7.11	0
2	33468	7.21	0
2	34014	7.31	0
2	34560	7.41	0
2	35106	7.51	0
2	35652	7.61	0
2	36198	7.71	0
2	36744	7.81	0
2	37290	7.91	0
2	37844	8.01	0
2	38390	8.11	0
2	38936	8.21	0
2	39482	8.31	0
2	40028	8.41	0
2	40574	8.51	0
2	41120	8.61	0
2	41666	8.71	0
2	42212	8.81	0
2	42758	8.91	0
2	43312	9.01	0
2	43858	9.11	0
2	44404	9.21	0
2	44950	9.31	0
2	45496	9.41	0
2	46042	9.51	0
2	46588	9.61	0
2	47134	9.71	0
2	47680	9.81	0
2	48226	9.91	0
2	48780	10.01	0
2	49326	10.11	0
2	49872	10.21	0
2	50418	10.31	0
2	50964	10.41	0
2	51510	10.51	0
2	52056	10.61	0
2	52602	10.71	0
2	53148	10.81	0
2	53694	10.91	0
2	54248	11.01	0
2	54794	11.11	0
2	55340	11.21	0
2	55886	11.31	0
2	56432	11.41	0
2	56978	11.51	0
2	57524	11.61	0
2	58070	11.71	0
2	58616	11.81	0
2	59162	11.91	0
2	59716	12.01	0
2	60262	12.11	0
2	60808	12.21	0
2	61354	12.31	0
2	61900	12.41	0
2	62446	12.51	0
2	62992	12.61	0
2	63538	12.71	0
2	64084	12.81	0
2	64630	12.91	0
2	65184	13.01	0
2	65730	13.11	0
2	66276	13.21	0
2	66822	13.31	0
2	67368	13.41	0
2	67914	13.51	0
2	68460	13.61	0
2	69006	13.71	0
2	69552	13.81	0
2	70098	13.91	0
2	70652	14.01	0
2	71198	14.11	0
2	71744	14.21	0
2	72290	14.31	0
2	72836	14.41	0
2	73382	14.51	0
2	73928	14.61	0
2	74474	14.71	0
2	75020	14.81	0
2	75566	14.91	0
2	76120	15.01	0
2	76666	15.11	0
2	77212	15.21	0
2	77758	15.31	0
2	78304	15.41	0
2	78850	15.51	0
2	79396	15.61	0
2	79942	15.71	0
2	80488	15.81	0
2	81034	15.91	0
2	81588	16.01	0
2	82134	16.11	0
2	82680	16.21	0
2	83226	16.31	0
2	83772	16.41	0
2	84318	16.51	0
2	84864	16.61	0
2	85410	16.71	0
2	85956	16.81	0
2	86502	16.91	0
2	87056	17.01	0
2	87602	17.11	0
2	88148	17.21	0
2	88694	17.31	0
2	89240	17.41	0
2	89786	17.51	0
2	90332	17.61	0
2	90878	17.71	0
2	91424	17.81	0
2	91970	17.91	0
2	92524	18.01	0
2	93070	18.11	0
2	93616	18.21	0
2	94162	18.31	0
2	94708	18.41	0
2	95254	18.51	0
2	95800	18.61	0
2	96346	18.71	0
2	96892	18.81	0
2	97438	18.91	0
2	97992	19.01	0
2	98538	19.11	0
2	99084	19.21	0
2	99630	19.31	0
2	100176	19.41	0
2	100722	19.51	0
2	101268	19.61	0
2	101814	19.71	0
2	102360	19.81	0
2	102906	19.91	0
2	103460	20.01	0
2	104006	20.11	0
2	104552	20.21	0
2	105098	20.31	0
2	105644	20.41	0
2	106190	20.51	0
2	106736	20.61	0
2	107282	20.71	0
2	107828	20.81	0
2	108374	20.91	0
2	108928	21.01	0
2	109474	21.11	0
2	110020	21.21	0
2	110566	21.31	0
2	111112	21.41	0
2	111658	21.51	0
2	112204	21.61	0
2	112750	21.71	0
2	113296	21.81	0
2	113842	21.91	0
2	114396	22.01	0
2	114942	22.11	0
2	115488	22.21	0
2	116034	22.31	0
2	116580	22.41	0
2	117126	22.51	0
2	117672	22.61	0
2	118218	22.71	0
2	118764	22.81	0
2	119310	22.91	0
2	119864	23.01	0
2	120410	23.11	0
2	120956	23.21	0
2	121502	23.31	0
2	122048	23.41	0
2	122594	23.51	0
2	123140	23.61	0
2	123686	23.71	0
2	124232	23.81	0
2	124778	23.91	0
2	125332	24.01	0
2	125878	24.11	0
2	126424	24.21	0
2	126970	24.31	0
2	127516	24.41	0
2	128062	24.51	0
2	128608	24.61	0
2	129154	24.71	0
2	129700	24.81	0
2	130246	24.91	0
2	130800	25.01	0
2	131346	25.11	0
2	131892	25.21	0
2	132438	25.31	0
2	132984	25.41	0
2	133530	25.51	0
2	134076	25.61	0
2	134622	25.71	0
2	135168	25.81	0
2	135714	25.91	0
2	136268	26.01	0
2	136814	26.11	0
2	137360	26.21	0
2	137906	26.31	0
2	138452	26.41	0
2	138998	26.51	0
2	139544	26.61	0
2	140090	26.71	0
2	140636	26.81	0
2	141182	26.91	0
2	141736	27.01	0
2	142282	27.11	0
2	142828	27.21	0
2	143374	27.31	0
2	143920	27.41	0
2	144466	27.51	0
2	145012	27.61	0
2	145558	27.71	0
2	146104	27.81	0
2	146650	27.91	0
2	147204	28.01	0
2	147750	28.11	0
2	148296	28.21	0
2	148842	28.31	0
2	149388	28.41	0
2	149934	28.51	0
2	150480	28.61	0
2	151026	28.71	0
2	151572	28.81	0
2	152118	28.91	0
2	152672	29.01	0
2	153218	29.11	0
2	153764	29.21	0
2	154310	29.31	0
2	154856	29.41	0
2	155402	29.51	0
2	155948	29.61	0
2	156494	29.71	0
2	157040	29.81	0
2	157586	29.91	0
2	158140	30.01	0
2	158686	30.11	0
2	159232	30.21	0
2	159778	30.31	0
2	160324	30.41	0
2	160870	30.51	0
2	161416	30.61	0
2	161962	30.71	0
2	162508	30.81	0
2	163054	30.91	0
2	163608	31.01	0
2	164154	31.11	0
2	164700	31.21	0
2	165246	31.31	0
2	165792	31.41	0
2	166338	31.51	0
2	166884	31.61	0
2	167430	31.71	0
2	167976	31.81	0
2	168522	31.91	0
2	169076	32.01	0
2	169622	32.11	0
2	170168	32.21	0
2	170714	32.31	0
2	171260	32.41	0
2	171806	32.51	0
2	172352	32.61	0
2	172898	32.71	0
2	173444	32.81	0
2	173990	32.91	0
2	174544	33.01	0
2	175090	33.11	0
2	175636	33.21	0
2	176182	33.31	0
2	176728	33.41	0
2	177274	33.51	0
2	177820	33.61	0
2	178366	33.71	0
2	178912	33.81	0
2	179458	33.91	0
2	180012	34.01	0
2	180558	34.11	0
2	181104	34.21	0
2	181650	34.31	0
2	182196	34.41	0
2	182742	34.51	0
2	183288	34.61	0
2	183834	34.71	0
2	184380	34.81	0
2	184926	34.91	0
2	185480	35.01	0
2	186026	35.11	0
2	186572	35.21	0
2	187118	35.31	0
2	187664	35.41	0
2	188210	35.51	0
2	188756	35.61	0
2	189302	35.71	0
2	189848	35.81	0
2	190394	35.91	0
2	190948	36.01	0
2	191494	36.11	0
2	192040	36.21	0
2	192586	36.31	0
2	193132	36.41	0
2	193678	36.51	0
2	194224	36.61	0
2	194770	36.71	0
2	195316	36.81	0
2	195862	36.91	0
2	196416	37.01	0
2	196962	37.11	0
2	197508	37.21	0
2	198054	37.31	0
2	198600	37.41	0
2	199146	37.51	0
2	199692	37.61	0
2	200238	37.71	0
2	200784	37.81	0
2	201330	37.91	0
2	201884	38.01	0
2	202430	38.11	0
2	202976	38.21	0
2	203522	38.31	0
2	204068	38.41	0
2	204614	38.51	0
2	205160	38.61	0
2	205706	38.71	0
2	206252	38.81	0
2	206798	38.91	0
2	207352	39.01	0
2	207898	39.11	0
2	208444	39.21	0
2	208990	39.31	0
2	209536	39.41	0
2	210082	39.51	0
2	210628	39.61	0
2	211174	39.71	0
2	211720	39.81	0
2	212266	39.91	0
2	212820	40.01	0
2	213366	40.11	0
2	213912	40.21	0
2	214458	40.31	0
2	215004	40.41	0
2	215550	40.51	0
2	216096	40.61	0
2	216642	40.71	0
2	217188	40.81	0
2	217734	40.91	0
2	218288	41.01	0
2	218834	41.11	0
2	219380	41.21	0
2	219926	41.31	0
2	220472	41.41	0
2	221018	41.51	0
2	221564	41.61	0
2	222110	41.71	0
2	222656	41.81	0
2	223202	41.91	0
2	223756	42.01	0
2	224302	42.11	0
2	224848	42.21	0
2	225394	42.31	0
2	225940	42.41	0
2	226486	42.51	0
2	227032	42.61	0
2	227578	42.71	0
2	228124	42.81	0
2	228670	42.91	0
2	229224	43.01	0
2	229770	43.11	0
2	230316	43.21	0
2	230862	43.31	0
2	231408	43.41	0
2	231954	43.51	0
2	232500	43.61	0
2	233046	43.71	0
2	233592	43.81	0
2	234138	43.91	0
2	234692	44.01	0
2	235238	44.11	0
2	235784	44.21	0
2	236330	44.31	0
2	236876	44.41	0
2	237422	44.51	0
2	237968	44.61	0
2	238514	44.71	0
2	239060	44.81	0
2	239606	44.91	0
2	240160	45.01	0
2	240706	45.11	0
2	241252	45.21	0
2	241798	45.31	0
2	242344	45.41	0
2	242890	45.51	0
2	243436	45.61	0
2	243982	45.71	0
2	244528	45.81	0
2	245074	45.91	0
2	245628	46.01	0
2	246174	46.11	0
2	246720	46.21	0
2	247266	46.31	0
2	247812	46.41	0
2	248358	46.51	0
2	248904	46.61	0
2	249450	46.71	0
2	249996	46.81	0
2	250542	46.91	0
2	251096	47.01	0
2	251642	47.11	0
2	252188	47.21	0
2	252734	47.31	0
2	253280	47.41	0
2	253826	47.51	0
2	254372	47.61	0
2	254918	47.71	0
2	255464	47.81	0
2	256010	47.91	0
2	256564	48.01	0
2	257110	48.11	0
2	257656	48.21	0
2	258202	48.31	0
2	258748	48.41	0
2	259294	48.51	0
2	259840	48.61	0
2	260386	48.71	0
2	260932	48.81	0
2	261478	48.91	0
2	262032	49.01	0
2	262578	49.11	0
2	263124	49.21	0
2	263670	49.31	0
2	264216	49.41	0
2	264762	49.51	0
2	265308	49.61	0
2	265854	49.71	0
2	266400	49.81	0
2	266946	49.91	0
2	267500	50.01	0
2	268046	50.11	0
2	268592	50.21	0
2	269138	50.31	0
2	269684	50.41	0
2	270230	50.51	0
2	270776	50.61	0
2	271322	50.71	0
2	271868	50.81	0
2	272414	50.91	0
2	272968	51.01	0
2	273514	51.11	0
2	274060	51.21	0
2	274606	51.31	0
2	275152	51.41	0
2	275698	51.51	0
2	276244	51.61	0
2	276790	51.71	0
2	277336	51.81	0
2	277882	51.91	0
2	278436	52.01	0
2	278982	52.11	0
2	279528	52.21	0
2	280074	52.31	0
2	280620	52.41	0
2	281166	52.51	0
2	281712	52.61	0
2	282258	52.71	0
2	282804	52.81	0
2	283350	52.91	0
2	283904	53.01	0
2	284450	53.11	0
2	284996	53.21	0
2	285542	53.31	0
2	286088	53.41	0
2	286634	53.51	0
2	287180	53.61	0
2	287726	53.71	0
2	288272	53.81	0
2	288818	53.91	0
2	289372	54.01	0
2	289918	54.11	0
2	290464	54.21	0
2	291010	54.31	0
2	291556	54.41	0
2	292102	54.51	0
2	292648	54.61	0
2	293194	54.71	0
2	293740	54.81	0
2	294286	54.91	0
2	294840	55.01	0
2	295386	55.11	0
2	295932	55.21	0
2	296478	55.31	0
2	297024	55.41	0
2	297570	55.51	0
2	298116	55.61	0
2	298662	55.71	0
2	299208	55.81	0
2	299754	55.91	0
2	300308	56.01	0
2	300854	56.11	0
2	301400	56.21	0
2	301946	56.31	0
2	302492	56.41	0
2	303038	56.51	0
2	303584	56.61	0
2	304130	56.71	0
2	304676	56.81	0
2	305222	56.91	0
2	305776	57.01	0
2	306322	57.11	0
2	306868	57.21	0
2	307414	57.31	0
2	307960	57.41	0
2	308506	57.51	0
2	309052	57.61	0
2	309598	57.71	0
2	310144	57.81	0
2	310690	57.91	0
2	311244	58.01	0
2	311790	58.11	0
2	312336	58.21	0
2	312882	58.31	0
2	313428	58.41	0
2	313974	58.51	0
2	314520	58.61	0
2	315066	58.71	0
2	315612	58.81	0
2	316158	58.91	0
2	316712	59.01	0
2	317258	59.11	0
2	317804	59.21	0
2	318350	59.31	0
2	318896	59.41	0
2	319442	59.51	0
2	319988	59.61	0
2	320534	59.71	0
2	321080	59.81	0
2	321626	59.91	0
3	113	1.11	-0.000358191
3	659	1.21	-0.000681704
3	1205	1.31	-0.00093487
3	1751	1.41	-0.00112579
3	2297	1.51	-0.00126221
3	2843	1.61	-0.00135149
3	3389	1.71	-0.00140049
3	3935	1.81	-0.00141557
3	4481	1.91	-0.00140255
3	5035	2.01	-0.00136671
3	5581	2.11	-0.0013128
3	6127	2.21	-0.00124502
3	6673	2.31	-0.0011671
3	7219	2.41	-0.00108223
3	7765	2.51	-0.000993208
3	8311	2.61	-0.000902362
3	8857	2.71	-0.000811651
3	9403	2.81	-0.000722679
3	9949	2.91	-0.000636729
3	10503	3.01	-0.0005548
3	11049	3.11	-0.000477639
3	11595	3.21	-0.000405773
3	12141	3.31	-0.00033954
3	12687	3.41	-0.000279116
3	13233	3.51	-0.000224541
3	13779	3.61	-0.000175743
3	14325	3.71	-0.00013256
3	14871	3.81	-9.47571e-05
3	15417	3.91	-6.2046e-05
3	15971	4.01	-3.40986e-05
3	16517	4.11	-1.05605e-05
3	17063	4.21	8.93844e-06
3	17609	4.31	2.4774e-05
3	18155	4.41	3.73203e-05
3	18701	4.51	4.69433e-05
3	19247	4.61	5.39956e-05
3	19793	4.71	5.88124e-05
3	20339	4.81	6.1709e-05
3	20885	4.91	6.29785e-05
3	21440	5.01	-0.156801
3	21986	5.11	-1.56585
3	22532	5.21	-2.72175
3	23078	5.31	-3.67
3	23624	5.41	-4.44789
3	24170	5.51	-5.08603
3	24716	5.61	-5.60953
3	25262	5.71	-6.03898
3	25808	5.81	-6.39128
3	26354	5.91	-6.68029
3	26908	6.01	-6.91738
3	27454	6.11	-7.11187
3	28000	6.21	-7.27143
3	28546	6.31	-7.40232
3	29092	6.41	-7.50969
3	29638	6.51	-7.59778
3	30184	6.61	-7.67004
3	30730	6.71	-7.72932
3	31276	6.81	-7.77794
3	31822	6.91	-7.81784
3	32376	7.01	-7.85056
3	32922	7.11	-7.87741
3	33468	7.21	-7.89943
3	34014	7.31	-7.9175
3	34560	7.41	-7.93232
3	35106	7.51	-7.94448
3	35652	7.61	-7.95445
3	36198	7.71	-7.96264
3	36744	7.81	-7.96935
3	37290	7.91	-7.97486
3	37844	8.01	-7.97937
3	38390	8.11	-7.98308
3	38936	8.21	-7.98612
3	39482	8.31	-7.98861
3	40028	8.41	-7.99066
3	40574	8.51	-7.99234
3	41120	8.61	-7.99371
3	41666	8.71	-7.99484
3	42212	8.81	-7.99577
3	42758	8.91	-7.99653
3	43312	9.01	0
3	43858	9.11	0
3	44404	9.21	0
3	44950	9.31	0
3	45496	9.41	0
3	46042	9.51	0
3	46588	9.61	0
3	47134	9.71	0
3	47680	9.81	0
3	48226	9.91	0
3	48780	10.01	0
3	49326	10.11	0
3	49872	10.21	0
3	50418	10.31	0
3	50964	10.41	0
3	51510	10.51	0
3	52056	10.61	0
3	52602	10.71	0
3	53148	10.81	0
3	53694	10.91	0
3	54248	11.01	0
3	54794	11.11	0
3	55340	11.21	0
3	55886	11.31	0
3	56432	11.41	0
3	56978	11.51	0
3	57524	11.61	0
3	58070	11.71	0
3	58616	11.81	0
3	59162	11.91	0
3	59716	12.01	0
3	60262	12.11	0
3	60808	12.21	0
3	61354	12.31	0
3	61900	12.41	0
3	62446	12.51	0
3	62992	12.61	0
3	63538	12.71	0
3	64084	12.81	0
3	64630	12.91	0
3	65184	13.01	0
3	65730	13.11	0
3	66276	13.21	0
3	66822	13.31	0
3	67368	13.41	0
3	67914	13.51	0
3	68460	13.61	0
3	69006	13.71	0
3	69552	13.81	0
3	70098	13.91	0
3	70652	14.01	0
3	71198	14.11	0
3	71744	14.21	0
3	72290	14.31	0
3	72836	14.41	0
3	73382	14.51	0
3	73928	14.61	0
3	74474	14.71	0
3	75020	14.81	0
3	75566	14.91	0
3	76120	15.01	0
3	76666	15.11	0
3	77212	15.21	0
3	77758	15.31	0
3	78304	15.41	0
3	78850	15.51	0
3	79396	15.61	0
3	79942	15.71	0
3	80488	15.81	0
3	81034	15.91	0
3	81588	16.01	0
3	82134	16.11	0
3	82680	16.21	0
3	83226	16.31	0
3	83772	16.41	0
3	84318	16.51	0
3	84864	16.61	0
3	85410	16.71	0
3	85956	16.81	0
3	86502	16.91	0
3	87056	17.01	0
3	87602	17.11	0
3	88148	17.21	0
3	88694	17.31	0
3	89240	17.41	0
3	89786	17.51	0
3	90332	17.61	0
3	90878	17.71	0
3	91424	17.81	0
3	91970	17.91	0
3	92524	18.01	0
3	93070	18.11	0
3	93616	18.21	0
3	94162	18.31	0
3	94708	18.41	0
3	95254	18.51	0
3	95800	18.61	0
3	96346	18.71	0
3	96892	18.81	0
3	97438	18.91	0
3	97992	19.01	0
3	98538	19.11	0
3	99084	19.21	0
3	99630	19.31	0
3	100176	19.41	0
3	100722	19.51	0
3	101268	19.61	0
3	101814	19.71	0
3	102360	19.81	0
3	102906	19.91	0
3	103460	20.01	0
3	104006	20.11	0
3	104552	20.21	0
3	105098	20.31	0
3	105644	20.41	0
3	106190	20.51	0
3	106736	20.61	0
3	107282	20.71	0
3	107828	20.81	0
3	108374	20.91	0
3	108928	21.01	0
3	109474	21.11	0
3	110020	21.21	0
3	110566	21.31	0
3	111112	21.41	0
3	111658	21.51	0
3	112204	21.61	0
3	112750	21.71	0
3	113296	21.81	0
3	113842	21.91	0
3	114396	22.01	0
3	114942	22.11	0
3	115488	22.21	0
3	116034	22.31	0
3	116580	22.41	0
3	117126	22.51	0
3	117672	22.61	0
3	118218	22.71	0
3	118764	22.81	0
3	119310	22.91	0
3	119864	23.01	0
3	120410	23.11	0
3	120956	23.21	0
3	121502	23.31	0
3	122048	23.41	0
3	122594	23.51	0
3	123140	23.61	0
3	123686	23.71	0
3	124232	23.81	0
3	124778	23.91	0
3	125332	24.01	0
3	125878	24.11	0
3	126424	24.21	0
3	126970	24.31	0
3	127516	24.41	0
3	128062	24.51	0
3	128608	24.61	0
3	129154	24.71	0
3	129700	24.81	0
3	130246	24.91	0
3	130800	25.01	0
3	131346	25.11	0
3	131892	25.21	0
3	132438	25.31	0
3	132984	25.41	0
3	133530	25.51	0
3	134076	25.61	0
3	134622	25.71	0
3	135168	25.81	0
3	135714	25.91	0
3	136268	26.01	0
3	136814	26.11	0
3	137360	26.21	0
3	137906	26.31	0
3	138452	26.41	0
3	138998	26.51	0
3	139544	26.61	0
3	140090	26.71	0
3	140636	26.81	0
3	141182	26.91	0
3	141736	27.01	0
3	142282	27.11	0
3	142828	27.21	0
3	143374	27.31	0
3	143920	27.41	0
3	144466	27.51	0
3	145012	27.61	0
3	145558	27.71	0
3	146104	27.81	0
3	146650	27.91	0
3	147204	28.01	0
3	147750	28.11	0
3	148296	28.21	0
3	148842	28.31	0
3	149388	28.41	0
3	149934	28.51	0
3	150480	28.61	0
3	151026	28.71	0
3	151572	28.81	0
3	152118	28.91	0
3	152672	29.01	0
3	153218	29.11	0
3	153764	29.21	0
3	154310	29.31	0
3	154856	29.41	0
3	155402	29.51	0
3	155948	29.61	0
3	156494	29.71	0
3	157040	29.81	0
3	157586	29.91	0
3	158140	30.01	0
3	158686	30.11	0
3	159232	30.21	0
3	159778	30.31	0
3	160324	30.41	0
3	160870	30.51	0
3	161416	30.61	0
3	161962	30.71	0
3	162508	30.81	0
3	163054	30.91	0
3	163608	31.01	0
3	164154	31.11	0
3	164700	31.21	0
3	165246	31.31	0
3	165792	31.41	0
3	166338	31.51	0
3	166884	31.61	0
3	167430	31.71	0
3	167976	31.81	0
3	168522	31.91	0
3	169076	32.01	0
3	169622	32.11	0
3	170168	32.21	0
3	170714	32.31	0
3	171260	32.41	0
3	171806	32.51	0
3	172352	32.61	0
3	172898	32.71	0
3	173444	32.81	0
3	173990	32.91	0
3	174544	33.01	0
3	175090	33.11	0
3	175636	33.21	0
3	176182	33.31	0
3	176728	33.41	0
3	177274	33.51	0
3	177820	33.61	0
3	178366	33.71	0
3	178912	33.81	0
3	179458	33.91	0
3	180012	34.01	0
3	180558	34.11	0
3	181104	34.21	0
3	181650	34.31	0
3	182196	34.41	0
3	182742	34.51	0
3	183288	34.61	0
3	183834	34.71	0
3	184380	34.81	0
3	184926	34.91	0
3	185480	35.01	0
3	186026	35.11	0
3	186572	35.21	0
3	187118	35.31	0
3	187664	35.41	0
3	188210	35.51	0
3	188756	35.61	0
3	189302	35.71	0
3	189848	35.81	0
3	190394	35.91	0
3	190948	36.01	0
3	191494	36.11	0
3	192040	36.21	0
3	192586	36.31	0
3	193132	36.41	0
3	193678	36.51	0
3	194224	36.61	0
3	194770	36.71	0
3	195316	36.81	0
3	195862	36.91	0
3	196416	37.01	0
3	196962	37.11	0
3	197508	37.21	0
3	198054	37.31	0
3	198600	37.41	0
3	199146	37.51	0
3	199692	37.61	0
3	200238	37.71	0
3	200784	37.81	0
3	201330	37.91	0
3	201884	38.01	0
3	202430	38.11	0
3	202976	38.21	0
3	203522	38.31	0
3	204068	38.41	0
3	204614	38.51	0
3	205160	38.61	0
3	205706	38.71	0
3	206252	38.81	0
3	206798	38.91	0
3	207352	39.01	0
3	207898	39.11	0
3	208444	39.21	0
3	208990	39.31	0
3	209536	39.41	0
3	210082	39.51	0
3	210628	39.61	0
3	211174	39.71	0
3	211720	39.81	0
3	212266	39.91	0
3	212820	40.01	0
3	213366	40.11	0
3	213912	40.21	0
3	214458	40.31	0
3	215004	40.41	0
3	215550	40.51	0
3	216096	40.61	0
3	216642	40.71	0
3	217188	40.81	0
3	217734	40.91	0
3	218288	41.01	0
3	218834	41.11	0
3	219380	41.21	0
3	219926	41.31	0
3	220472	41.41	0
3	221018	41.51	0
3	221564	41.61	0
3	222110	41.71	0
3	222656	41.81	0
3	223202	41.91	0
3	223756	42.01	0
3	224302	42.11	0
3	224848	42.21	0
3	225394	42.31	0
3	225940	42.41	0
3	226486	42.51	0
3	227032	42.61	0
3	227578	42.71	0
3	228124	42.81	0
3	228670	42.91	0
3	229224	43.01	0
3	229770	43.11	0
3	230316	43.21	0
3	230862	43.31	0
3	231408	43.41	0
3	231954	43.51	0
3	232500	43.61	0
3	233046	43.71	0
3	233592	43.81	0
3	234138	43.91	0
3	234692	44.01	0
3	235238	44.11	0
3	235784	44.21	0
3	236330	44.31	0
3	236876	44.41	0
3	237422	44.51	0
3	237968	44.61	0
3	238514	44.71	0
3	239060	44.81	0
3	239606	44.91	0
3	240160	45.01	0
3	240706	45.11	0
3	241252	45.21	0
3	241798	45.31	0
3	242344	45.41	0
3	242890	45.51	0
3	243436	45.61	0
3	243982	45.71	0
3	244528	45.81	0
3	245074	45.91	0
3	245628	46.01	0
3	246174	46.11	0
3	246720	46.21	0
3	247266	46.31	0
3	247812	46.41	0
3	248358	46.51	0
3	248904	46.61	0
3	249450	46.71	0
3	249996	46.81	0
3	250542	46.91	0
3	251096	47.01	0
3	251642	47.11	0
3	252188	47.21	0
3	252734	47.31	0
3	253280	47.41	0
3	253826	47.51	0
3	254372	47.61	0
3	254918	47.71	0
3	255464	47.81	0
3	256010	47.91	0
3	256564	48.01	0
3	257110	48.11	0
3	257656	48.21	0
3	258202	48.31	0
3	258748	48.41	0
3	259294	48.51	0
3	259840	48.61	0
3	260386	48.71	0
3	260932	48.81	0
3	261478	48.91	0
3	262032	49.01	0
3	262578	49.11	0
3	263124	49.21	0
3	263670	49.31	0
3	264216	49.41	0
3	264762	49.51	0
3	265308	49.61	0
3	265854	49.71	0
3	266400	49.81	0
3	266946	49.91	0
3	267500	50.01	0
3	268046	50.11	0
3	268592	50.21	0
3	269138	50.31	0
3	269684	50.41	0
3	270230	50.51	0
3	270776	50.61	0
3	271322	50.71	0
3	271868	50.81	0
3	272414	50.91	0
3	272968	51.01	0
3	273514	51.11	0
3	274060	51.21	0
3	274606	51.31	0
3	275152	51.41	0
3	275698	51.51	0
3	276244	51.61	0
3	276790	51.71	0
3	277336	51.81	0
3	277882	51.91	0
3	278436	52.01	0
3	278982	52.11	0
3	279528	52.21	0
3	280074	52.31	0
3	280620	52.41	0
3	281166	52.51	0
3	281712	52.61	0
3	282258	52.71	0
3	282804	52.81	0
3	283350	52.91	0
3	283904	53.01	0
3	284450	53.11	0
3	284996	53.21	0
3	285542	53.31	0
3	286088	53.41	0
3	286634	53.51	0
3	287180	53.61	0
3	287726	53.71	0
3	288272	53.81	0
3	288818	53.91	0
3	289372	54.01	0
3	289918	54.11	0
3	290464	54.21	0
3	291010	54.31	0
3	291556	54.41	0
3	292102	54.51	0
3	292648	54.61	0
3	293194	54.71	0
3	293740	54.81	0
3	294286	54.91	0
3	294840	55.01	0
3	295386	55.11	0
3	295932	55.21	0
3	296478	55.31	0
3	297024	55.41	0
3	297570	55.51	0
3	298116	55.61	0
3	298662	55.71	0
3	299208	55.81	0
3	299754	55.91	0
3	300308	56.01	0
3	300854	56.11	0
3	301400	56.21	0
3	301946	56.31	0
3	302492	56.41	0
3	303038	56.51	0
3	303584	56.61	0
3	304130	56.71	0
3	304676	56.81	0
3	305222	56.91	0
3	305776	57.01	0
3	306322	57.11	0
3	306868	57.21	0
3	307414	57.31	0
3	307960	57.41	0
3	308506	57.51	0
3	309052	57.61	0
3	309598	57.71	0
3	310144	57.81	0
3	310690	57.91	0
3	311244	58.01	0
3	311790	58.11	0
3	312336	58.21	0
3	312882	58.31	0
3	313428	58.41	0
3	313974	58.51	0
3	314520	58.61	0
3	315066	58.71	0
3	315612	58.81	0
3	316158	58.91	0
3	316712	59.01	0
3	317258	59.11	0
3	317804	59.21	0
3	318350	59.31	0
3	318896	59.41	0
3	319442	59.51	0
3	319988	59.61	0
3	320534	59.71	0
3	321080	59.81	0
3	321626	59.91	0
4	113	1.11	-0.00218518
4	659	1.21	-0.00213419
4	1205	1.31	-0.00205408
4	1751	1.41	-0.00195152
4	2297	1.51	-0.00183238
4	2843	1.61	-0.00170178
4	3389	1.71	-0.00156412
4	3935	1.81	-0.00142314
4	4481	1.91	-0.00128196
4	5035	2.01	-0.00114315
4	5581	2.11	-0.00100877
4	6127	2.21	-0.000880447
4	6673	2.31	-0.000759381
4	7219	2.41	-0.000646445
4	7765	2.51	-0.000542204
4	8311	2.61	-0.000446965
4	8857	2.71	-0.000360819
4	9403	2.81	-0.000283678
4	9949	2.91	-0.000215307
4	10503	3.01	-0.000155357
4	11049	3.11	-0.000103391
4	11595	3.21	-5.89069e-05
4	12141	3.31	-2.13575e-05
4	12687	3.41	9.82919e-06
4	13233	3.51	3.52368e-05
4	13779	3.61	5.54479e-05
4	14325	3.71	7.10335e-05
4	14871	3.81	8.25451e-05
4	15417	3.91	9.05081e-05
4	15971	4.01	9.54172e-05
4	16517	4.11	9.7733e-05
4	17063	4.21	9.78798e-05
4	17609	4.31	9.62447e-05
4	18155	4.41	9.31771e-05
4	18701	4.51	8.89894e-05
4	19247	4.61	8.39579e-05
4	19793	4.71	7.83245e-05
4	20339	4.81	7.22983e-05
4	20885	4.91	6.6058e-05
4	21440	5.01	-8
4	21986	5.11	-8
4	22532	5.21	-8
4	23078	5.31	-8
4	23624	5.41	-8
4	24170	5.51	-8
4	24716	5.61	-8
4	25262	5.71	-8
4	25808	5.81	-8
4	26354	5.91	-8
4	26908	6.01	-8
4	27454	6.11	-8
4	28000	6.21	-8
4	28546	6.31	-8
4	29092	6.41	-8
4	29638	6.51	-8
4	30184	6.61	-8
4	30730	6.71	-8
4	31276	6.81	-8
4	31822	6.91	-8
4	32376	7.01	-8
4	32922	7.11	-8
4	33468	7.21	-8
4	34014	7.31	-8
4	34560	7.41	-8
4	35106	7.51	-8
4	35652	7.61	-8
4	36198	7.71	-8
4	36744	7.81	-8
4	37290	7.91	-8
4	37844	8.01	-8
4	38390	8.11	-8
4	38936	8.21	-8
4	39482	8.31	-8
4	40028	8.41	-8
4	40574	8.51	-8
4	41120	8.61	-8
4	41666	8.71	-8
4	42212	8.81	-8
4	42758	8.91	-8
4	43312	9.01	0
4	43858	9.11	0
4	44404	9.21	0
4	44950	9.31	0
4	45496	9.41	0
4	46042	9.51	0
4	46588	9.61	0
4	47134	9.71	0
4	47680	9.81	0
4	48226	9.91	0
4	48780	10.01	0
4	49326	10.11	0
4	49872	10.21	0
4	50418	10.31	0
4	50964	10.41	0
4	51510	10.51	0
4	52056	10.61	0
4	52602	10.71	0
4	53148	10.81	0
4	53694	10.91	0
4	54248	11.01	0
4	54794	11.11	0
4	55340	11.21	0
4	55886	11.31	0
4	56432	11.41	0
4	56978	11.51	0
4	57524	11.61	0
4	58070	11.71	0
4	58616	11.81	0
4	59162	11.91	0
4	59716	12.01	0
4	60262	12.11	0
4	60808	12.21	0
4	61354	12.31	0
4	61900	12.41	0
4	62446	12.51	0
4	62992	12.61	0
4	63538	12.71	0
4	64084	12.81	0
4	64630	12.91	0
4	65184	13.01	0
4	65730	13.11	0
4	66276	13.21	0
4	66822	13.31	0
4	67368	13.41	0
4	67914	13.51	0
4	68460	13.61	0
4	69006	13.71	0
4	69552	13.81	0
4	70098	13.91	0
4	70652	14.01	0
4	71198	14.11	0
4	71744	14.21	0
4	72290	14.31	0
4	72836	14.41	0
4	73382	14.51	0
4	73928	14.61	0
4	74474	14.71	0
4	75020	14.81	0
4	75566	14.91	0
4	76120	15.01	0
4	76666	15.11	0
4	77212	15.21	0
4	77758	15.31	0
4	78304	15.41	0
4	78850	15.51	0
4	79396	15.61	0
4	79942	15.71	0
4	80488	15.81	0
4	81034	15.91	0
4	81588	16.01	0
4	82134	16.11	0
4	82680	16.21	0
4	83226	16.31	0
4	83772	16.41	0
4	84318	16.51	0
4	84864	16.61	0
4	85410	16.71	0
4	85956	16.81	0
4	86502	16.91	0
4	87056	17.01	0
4	87602	17.11	0
4	88148	17.21	0
4	88694	17.31	0
4	89240	17.41	0
4	89786	17.51	0
4	90332	17.61	0
4	90878	17.71	0
4	91424	17.81	0
4	91970	17.91	0
4	92524	18.01	0
4	93070	18.11	0
4	93616	18.21	0
4	94162	18.31	0
4	94708	18.41	0
4	95254	18.51	0
4	95800	18.61	0
4	96346	18.71	0
4	96892	18.81	0
4	97438	18.91	0
4	97992	19.01	0
4	98538	19.11	0
4	99084	19.21	0
4	99630	19.31	0
4	100176	19.41	0
4	100722	19.51	0
4	101268	19.61	0
4	101814	19.71	0
4	102360	19.81	0
4	102906	19.91	0
4	103460	20.01	0
4	104006	20.11	0
4	104552	20.21	0
4	105098	20.31	0
4	105644	20.41	0
4	106190	20.51	0
4	106736	20.61	0
4	107282	20.71	0
4	107828	20.81	0
4	108374	20.91	0
4	108928	21.01	0
4	109474	21.11	0
4	110020	21.21	0
4	110566	21.31	0
4	111112	21.41	0
4	111658	21.51	0
4	112204	21.61	0
4	112750	21.71	0
4	113296	21.81	0
4	113842	21.91	0
4	114396	22.01	0
4	114942	22.11	0
4	115488	22.21	0
4	116034	22.31	0
4	116580	22.41	0
4	117126	22.51	0
4	117672	22.61	0
4	118218	22.71	0
4	118764	22.81	0
4	119310	22.91	0
4	119864	23.01	0
4	120410	23.11	0
4	120956	23.21	0
4	121502	23.31	0
4	122048	23.41	0
4	122594	23.51	0
4	123140	23.61	0
4	123686	23.71	0
4	124232	23.81	0
4	124778	23.91	0
4	125332	24.01	0
4	125878	24.11	0
4	126424	24.21	0
4	126970	24.31	0
4	127516	24.41	0
4	128062	24.51	0
4	128608	24.61	0
4	129154	24.71	0
4	129700	24.81	0
4	130246	24.91	0
4	130800	25.01	0
4	131346	25.11	0
4	131892	25.21	0
4	132438	25.31	0
4	132984	25.41	0
4	133530	25.51	0
4	134076	25.61	0
4	134622	25.71	0
4	135168	25.81	0
4	135714	25.91	0
4	136268	26.01	0
4	136814	26.11	0
4	137360	26.21	0
4	137906	26.31	0
4	138452	26.41	0
4	138998	26.51	0
4	139544	26.61	0
4	140090	26.71	0
4	140636	26.81	0
4	141182	26.91	0
4	141736	27.01	0
4	142282	27.11	0
4	142828	27.21	0
4	143374	27.31	0
4	143920	27.41	0
4	144466	27.51	0
4	145012	27.61	0
4	145558	27.71	0
4	146104	27.81	0
4	146650	27.91	0
4	147204	28.01	0
4	147750	28.11	0
4	148296	28.21	0
4	148842	28.31	0
4	149388	28.41	0
4	149934	28.51	0
4	150480	28.61	0
4	151026	28.71	0
4	151572	28.81	0
4	152118	28.91	0
4	152672	29.01	0
4	153218	29.11	0
4	153764	29.21	0
4	154310	29.31	0
4	154856	29.41	0
4	155402	29.51	0
4	155948	29.61	0
4	156494	29.71	0
4	157040	29.81	0
4	157586	29.91	0
4	158140	30.01	0
4	158686	30.11	0
4	159232	30.21	0
4	159778	30.31	0
4	160324	30.41	0
4	160870	30.51	0
4	161416	30.61	0
4	161962	30.71	0
4	162508	30.81	0
4	163054	30.91	0
4	163608	31.01	0
4	164154	31.11	0
4	164700	31.21	0
4	165246	31.31	0
4	165792	31.41	0
4	166338	31.51	0
4	166884	31.61	0
4	167430	31.71	0
4	167976	31.81	0
4	168522	31.91	0
4	169076	32.01	0
4	169622	32.11	0
4	170168	32.21	0
4	170714	32.31	0
4	171260	32.41	0
4	171806	32.51	0
4	172352	32.61	0
4	172898	32.71	0
4	173444	32.81	0
4	173990	32.91	0
4	174544	33.01	0
4	175090	33.11	0
4	175636	33.21	0
4	176182	33.31	0
4	176728	33.41	0
4	177274	33.51	0
4	177820	33.61	0
4	178366	33.71	0
4	178912	33.81	0
4	179458	33.91	0
4	180012	34.01	0
4	180558	34.11	0
4	181104	34.21	0
4	181650	34.31	0
4	182196	34.41	0
4	182742	34.51	0
4	183288	34.61	0
4	183834	34.71	0
4	184380	34.81	0
4	184926	34.91	0
4	185480	35.01	0
4	186026	35.11	0
4	186572	35.21	0
4	187118	35.31	0
4	187664	35.41	0
4	188210	35.51	0
4	188756	35.61	0
4	189302	35.71	0
4	189848	35.81	0
4	190394	35.91	0
4	190948	36.01	0
4	191494	36.11	0
4	192040	36.21	0
4	192586	36.31	0
4	193132	36.41	0
4	193678	36.51	0
4	194224	36.61	0
4	194770	36.71	0
4	195316	36.81	0
4	195862	36.91	0
4	196416	37.01	0
4	196962	37.11	0
4	197508	37.21	0
4	198054	37.31	0
4	198600	37.41	0
4	199146	37.51	0
4	199692	37.61	0
4	200238	37.71	0
4	200784	37.81	0
4	201330	37.91	0
4	201884	38.01	0
4	202430	38.11	0
4	202976	38.21	0
4	203522	38.31	0
4	204068	38.41	0
4	204614	38.51	0
4	205160	38.61	0
4	205706	38.71	0
4	206252	38.81	0
4	206798	38.91	0
4	207352	39.01	0
4	207898	39.11	0
4	208444	39.21	0
4	208990	39.31	0
4	209536	39.41	0
4	210082	39.51	0
4	210628	39.61	0
4	211174	39.71	0
4	211720	39.81	0
4	212266	39.91	0
4	212820	40.01	0
4	213366	40.11	0
4	213912	40.21	0
4	214458	40.31	0
4	215004	40.41	0
4	215550	40.51	0
4	216096	40.61	0
4	216642	40.71	0
4	217188	40.81	0
4	217734	40.91	0
4	218288	41.01	0
4	218834	41.11	0
4	219380	41.21	0
4	219926	41.31	0
4	220472	41.41	0
4	221018	41.51	0
4	221564	41.61	0
4	222110	41.71	0
4	222656	41.81	0
4	223202	41.91	0
4	223756	42.01	0
4	224302	42.11	0
4	224848	42.21	0
4	225394	42.31	0
4	225940	42.41	0
4	226486	42.51	0
4	227032	42.61	0
4	227578	42.71	0
4	228124	42.81	0
4	228670	42.91	0
4	229224	43.01	0
4	229770	43.11	0
4	230316	43.21	0
4	230862	43.31	0
4	231408	43.41	0
4	231954	43.51	0
4	232500	43.61	0
4	233046	43.71	0
4	233592	43.81	0
4	234138	43.91	0
4	234692	44.01	0
4	235238	44.11	0
4	235784	44.21	0
4	236330	44.31	0
4	236876	44.41	0
4	237422	44.51	0
4	237968	44.61	0
4	238514	44.71	0
4	239060	44.81	0
4	239606	44.91	0
4	240160	45.01	0
4	240706	45.11	0
4	241252	45.21	0
4	241798	45.31	0
4	242344	45.41	0
4	242890	45.51	0
4	243436	45.61	0
4	243982	45.71	0
4	244528	45.81	0
4	245074	45.91	0
4	245628	46.01	0
4	246174	46.11	0
4	246720	46.21	0
4	247266	46.31	0
4	247812	46.41	0
4	248358	46.51	0
4	248904	46.61	0
4	249450	46.71	0
4	249996	46.81	0
4	250542	46.91	0
4	251096	47.01	0
4	251642	47.11	0
4	252188	47.21	0
4	252734	47.31	0
4	253280	47.41	0
4	253826	47.51	0
4	254372	47.61	0
4	254918	47.71	0
4	255464	47.81	0
4	256010	47.91	0
4	256564	48.01	0
4	257110	48.11	0
4	257656	48.21	0
4	258202	48.31	0
4	258748	48.41	0
4	259294	48.51	0
4	259840	48.61	0
4	260386	48.71	0
4	260932	48.81	0
4	261478	48.91	0
4	262032	49.01	0
4	262578	49.11	0
4	263124	49.21	0
4	263670	49.31	0
4	264216	49.41	0
4	264762	49.51	0
4	265308	49.61	0
4	265854	49.71	0
4	266400	49.81	0
4	266946	49.91	0
4	267500	50.01	0
4	268046	50.11	0
4	268592	50.21	0
4	269138	50.31	0
4	269684	50.41	0
4	270230	50.51	0
4	270776	50.61	0
4	271322	50.71	0
4	271868	50.81	0
4	272414	50.91	0
4	272968	51.01	0
4	273514	51.11	0
4	274060	51.21	0
4	274606	51.31	0
4	275152	51.41	0
4	275698	51.51	0
4	276244	51.61	0
4	276790	51.71	0
4	277336	51.81	0
4	277882	51.91	0
4	278436	52.01	0
4	278982	52.11	0
4	279528	52.21	0
4	280074	52.31	0
4	280620	52.41	0
4	281166	52.51	0
4	281712	52.61	0
4	282258	52.71	0
4	282804	52.81	0
4	283350	52.91	0
4	283904	53.01	0
4	284450	53.11	0
4	284996	53.21	0
4	285542	53.31	0
4	286088	53.41	0
4	286634	53.51	0
4	287180	53.61	0
4	287726	53.71	0
4	288272	53.81	0
4	288818	53.91	0
4	289372	54.01	0
4	289918	54.11	0
4	290464	54.21	0
4	291010	54.31	0
4	291556	54.41	0
4	292102	54.51	0
4	292648	54.61	0
4	293194	54.71	0
4	293740	54.81	0
4	294286	54.91	0
4	294840	55.01	0
4	295386	55.11	0
4	295932	55.21	0
4	296478	55.31	0
4	297024	55.41	0
4	297570	55.51	0
4	298116	55.61	0
4	298662	55.71	0
4	299208	55.81	0
4	299754	55.91	0
4	300308	56.01	0
4	300854	56.11	0
4	301400	56.21	0
4	301946	56.31	0
4	302492	56.41	0
4	303038	56.51	0
4	303584	56.61	0
4	304130	56.71	0
4	304676	56.81	0
4	305222	56.91	0
4	305776	57.01	0
4	306322	57.11	0
4	306868	57.21	0
4	307414	57.31	0
4	307960	57.41	0
4	308506	57.51	0
4	309052	57.61	0
4	309598	57.71	0
4	310144	57.81	0
4	310690	57.91	0
4	311244	58.01	0
4	311790	58.11	0
4	312336	58.21	0
4	312882	58.31	0
4	313428	58.41	0
4	313974	58.51	0
4	314520	58.61	0
4	315066	58.71	0
4	315612	58.81	0
4	316158	58.91	0
4	316712	59.01	0
4	317258	59.11	0
4	317804	59.21	0
4	318350	59.31	0
4	318896	59.41	0
4	319442	59.51	0
4	319988	59.61	0
4	320534	59.71	0
4	321080	59.81	0
4	321626	59.91	0
5	113	1.11	27.78
5	659	1.21	27.7799
5	1205	1.31	27.7798
5	1751	1.41	27.7797
5	2297	1.51	27.7796
5	2843	1.61	27.7795
5	3389	1.71	27.7794
5	3935	1.81	27.7792
5	4481	1.91	27.7791
5	5035	2.01	27.7789
5	5581	2.11	27.7788
5	6127	2.21	27.7787
5	6673	2.31	27.7785
5	7219	2.41	27.7784
5	7765	2.51	27.7783
5	8311	2.61	27.7782
5	8857	2.71	27.7782
5	9403	2.81	27.7781
5	9949	2.91	27.778
5	10503	3.01	27.7779
5	11049	3.11	27.7779
5	11595	3.21	27.7779
5	12141	3.31	27.7778
5	12687	3.41	27.7778
5	13233	3.51	27.7778
5	13779	3.61	27.7777
5	14325	3.71	27.7777
5	14871	3.81	27.7777
5	15417	3.91	27.7777
5	15971	4.01	27.7777
5	16517	4.11	27.7777
5	17063	4.21	27.7777
5	17609	4.31	27.7777
5	18155	4.41	27.7777
5	18701	4.51	27.7777
5	19247	4.61	27.7777
5	19793	4.71	27.7777
5	20339	4.81	27.7777
5	20885	4.91	27.7777
5	21440	5.01	27.7762
5	21986	5.11	27.6807
5	22532	5.21	27.4586
5	23078	5.31	27.1328
5	23624	5.41	26.7217
5	24170	5.51	26.2408
5	24716	5.61	25.7025
5	25262	5.71	25.1173
5	25808	5.81	24.4934
5	26354	5.91	23.8379
5	26908	6.01	23.1565
5	27454	6.11	22.4537
5	28000	6.21	21.7335
5	28546	6.31	20.9989
5	29092	6.41	20.2526
5	29638	6.51	19.4967
5	30184	6.61	18.7328
5	30730	6.71	17.9624
5	31276	6.81	17.1867
5	31822	6.91	16.4067
5	32376	7.01	15.6231
5	32922	7.11	14.8365
5	33468	7.21	14.0475
5	34014	7.31	13.2565
5	34560	7.41	12.4639
5	35106	7.51	11.67
5	35652	7.61	10.875
5	36198	7.71	10.0791
5	36744	7.81	9.28245
5	37290	7.91	8.4852
5	37844	8.01	7.68746
5	38390	8.11	6.88931
5	38936	8.21	6.09083
5	39482	8.31	5.29208
5	40028	8.41	4.4931
5	40574	8.51	3.69394
5	41120	8.61	2.89463
5	41666	8.71	2.09519
5	42212	8.81	1.29566
5	42758	8.91	0.496036
5	43312	9.01	0
5	43858	9.11	0
5	44404	9.21	0
5	44950	9.31	0
5	45496	9.41	0
5	46042	9.51	0
5	46588	9.61	0
5	47134	9.71	0
5	47680	9.81	0
5	48226	9.91	0
5	48780	10.01	0
5	49326	10.11	0
5	49872	10.21	0
5	50418	10.31	0
5	50964	10.41	0
5	51510	10.51	0
5	52056	10.61	0
5	52602	10.71	0
5	53148	10.81	0
5	53694	10.91	0
5	54248	11.01	0
5	54794	11.11	0
5	55340	11.21	0
5	55886	11.31	0
5	56432	11.41	0
5	56978	11.51	0
5	57524	11.61	0
5	58070	11.71	0
5	58616	11.81	0
5	59162	11.91	0
5	59716	12.01	0
5	60262	12.11	0
5	60808	12.21	0
5	61354	12.31	0
5	61900	12.41	0
5	62446	12.51	0
5	62992	12.61	0
5	63538	12.71	0
5	64084	12.81	0
5	64630	12.91	0
5	65184	13.01	0
5	65730	13.11	0
5	66276	13.21	0
5	66822	13.31	0
5	67368	13.41	0
5	67914	13.51	0
5	68460	13.61	0
5	69006	13.71	0
5	69552	13.81	0
5	70098	13.91	0
5	70652	14.01	0
5	71198	14.11	0
5	71744	14.21	0
5	72290	14.31	0
5	72836	14.41	0
5	73382	14.51	0
5	73928	14.61	0
5	74474	14.71	0
5	75020	14.81	0
5	75566	14.91	0
5	76120	15.01	0
5	76666	15.11	0
5	77212	15.21	0
5	77758	15.31	0
5	78304	15.41	0
5	78850	15.51	0
5	79396	15.61	0
5	79942	15.71	0
5	80488	15.81	0
5	81034	15.91	0
5	81588	16.01	0
5	82134	16.11	0
5	82680	16.21	0
5	83226	16.31	0
5	83772	16.41	0
5	84318	16.51	0
5	84864	16.61	0
5	85410	16.71	0
5	85956	16.81	0
5	86502	16.91	0
5	87056	17.01	0
5	87602	17.11	0
5	88148	17.21	0
5	88694	17.31	0
5	89240	17.41	0
5	89786	17.51	0
5	90332	17.61	0
5	90878	17.71	0
5	91424	17.81	0
5	91970	17.91	0
5	92524	18.01	0
5	93070	18.11	0
5	93616	18.21	0
5	94162	18.31	0
5	94708	18.41	0
5	95254	18.51	0
5	95800	18.61	0
5	96346	18.71	0
5	96892	18.81	0
5	97438	18.91	0
5	97992	19.01	0
5	98538	19.11	0
5	99084	19.21	0
5	99630	19.31	0
5	100176	19.41	0
5	100722	19.51	0
5	101268	19.61	0
5	101814	19.71	0
5	102360	19.81	0
5	102906	19.91	0
5	103460	20.01	0
5	104006	20.11	0
5	104552	20.21	0
5	105098	20.31	0
5	105644	20.41	0
5	106190	20.51	0
5	106736	20.61	0
5	107282	20.71	0
5	107828	20.81	0
5	108374	20.91	0
5	108928	21.01	0
5	109474	21.11	0
5	110020	21.21	0
5	110566	21.31	0
5	111112	21.41	0
5	111658	21.51	0
5	112204	21.61	0
5	112750	21.71	0
5	113296	21.81	0
5	113842	21.91	0
5	114396	22.01	0
5	114942	22.11	0
5	115488	22.21	0
5	116034	22.31	0
5	116580	22.41	0
5	117126	22.51	0
5	117672	22.61	0
5	118218	22.71	0
5	118764	22.81	0
5	119310	22.91	0
5	119864	23.01	0
5	120410	23.11	0
5	120956	23.21	0
5	121502	23.31	0
5	122048	23.41	0
5	122594	23.51	0
5	123140	23.61	0
5	123686	23.71	0
5	124232	23.81	0
5	124778	23.91	0
5	125332	24.01	0
5	125878	24.11	0
5	126424	24.21	0
5	126970	24.31	0
5	127516	24.41	0
5	128062	24.51	0
5	128608	24.61	0
5	129154	24.71	0
5	129700	24.81	0
5	130246	24.91	0
5	130800	25.01	0
5	131346	25.11	0
5	131892	25.21	0
5	132438	25.31	0
5	132984	25.41	0
5	133530	25.51	0
5	134076	25.61	0
5	134622	25.71	0
5	135168	25.81	0
5	135714	25.91	0
5	136268	26.01	0
5	136814	26.11	0
5	137360	26.21	0
5	137906	26.31	0
5	138452	26.41	0
5	138998	26.51	0
5	139544	26.61	0
5	140090	26.71	0
5	140636	26.81	0
5	141182	26.91	0
5	141736	27.01	0
5	142282	27.11	0
5	142828	27.21	0
5	143374	27.31	0
5	143920	27.41	0
5	144466	27.51	0
5	145012	27.61	0
5	145558	27.71	0
5	146104	27.81	0
5	146650	27.91	0
5	147204	28.01	0
5	147750	28.11	0
5	148296	28.21	0
5	148842	28.31	0
5	149388	28.41	0
5	149934	28.51	0
5	150480	28.61	0
5	151026	28.71	0
5	151572	28.81	0
5	152118	28.91	0
5	152672	29.01	0
5	153218	29.11	0
5	153764	29.21	0
5	154310	29.31	0
5	154856	29.41	0
5	155402	29.51	0
5	155948	29.61	0
5	156494	29.71	0
5	157040	29.81	0
5	157586	29.91	0
5	158140	30.01	0
5	158686	30.11	0
5	159232	30.21	0
5	159778	30.31	0
5	160324	30.41	0
5	160870	30.51	0
5	161416	30.61	0
5	161962	30.71	0
5	162508	30.81	0
5	163054	30.91	0
5	163608	31.01	0
5	164154	31.11	0
5	164700	31.21	0
5	165246	31.31	0
5	165792	31.41	0
5	166338	31.51	0
5	166884	31.61	0
5	167430	31.71	0
5	167976	31.81	0
5	168522	31.91	0
5	169076	32.01	0
5	169622	32.11	0
5	170168	32.21	0
5	170714	32.31	0
5	171260	32.41	0
5	171806	32.51	0
5	172352	32.61	0
5	172898	32.71	0
5	173444	32.81	0
5	173990	32.91	0
5	174544	33.01	0
5	175090	33.11	0
5	175636	33.21	0
5	176182	33.31	0
5	176728	33.41	0
5	177274	33.51	0
5	177820	33.61	0
5	178366	33.71	0
5	178912	33.81	0
5	179458	33.91	0
5	180012	34.01	0
5	180558	34.11	0
5	181104	34.21	0
5	181650	34.31	0
5	182196	34.41	0
5	182742	34.51	0
5	183288	34.61	0
5	183834	34.71	0
5	184380	34.81	0
5	184926	34.91	0
5	185480	35.01	0
5	186026	35.11	0
5	186572	35.21	0
5	187118	35.31	0
5	187664	35.41	0
5	188210	35.51	0
5	188756	35.61	0
5	189302	35.71	0
5	189848	35.81	0
5	190394	35.91	0
5	190948	36.01	0
5	191494	36.11	0
5	192040	36.21	0
5	192586	36.31	0
5	193132	36.41	0
5	193678	36.51	0
5	194224	36.61	0
5	194770	36.71	0
5	195316	36.81	0
5	195862	36.91	0
5	196416	37.01	0
5	196962	37.11	0
5	197508	37.21	0
5	198054	37.31	0
5	198600	37.41	0
5	199146	37.51	0
5	199692	37.61	0
5	200238	37.71	0
5	200784	37.81	0
5	201330	37.91	0
5	201884	38.01	0
5	202430	38.11	0
5	202976	38.21	0
5	203522	38.31	0
5	204068	38.41	0
5	204614	38.51	0
5	205160	38.61	0
5	205706	38.71	0
5	206252	38.81	0
5	206798	38.91	0
5	207352	39.01	0
5	207898	39.11	0
5	208444	39.21	0
5	208990	39.31	0
5	209536	39.41	0
5	210082	39.51	0
5	210628	39.61	0
5	211174	39.71	0
5	211720	39.81	0
5	212266	39.91	0
5	212820	40.01	0
5	213366	40.11	0
5	213912	40.21	0
5	214458	40.31	0
5	215004	40.41	0
5	215550	40.51	0
5	216096	40.61	0
5	216642	40.71	0
5	217188	40.81	0
5	217734	40.91	0
5	218288	41.01	0
5	218834	41.11	0
5	219380	41.21	0
5	219926	41.31	0
5	220472	41.41	0
5	221018	41.51	0
5	221564	41.61	0
5	222110	41.71	0
5	222656	41.81	0
5	223202	41.91	0
5	223756	42.01	0
5	224302	42.11	0
5	224848	42.21	0
5	225394	42.31	0
5	225940	42.41	0
5	226486	42.51	0
5	227032	42.61	0
5	227578	42.71	0
5	228124	42.81	0
5	228670	42.91	0
5	229224	43.01	0
5	229770	43.11	0
5	230316	43.21	0
5	230862	43.31	0
5	231408	43.41	0
5	231954	43.51	0
5	232500	43.61	0
5	233046	43.71	0
5	233592	43.81	0
5	234138	43.91	0
5	234692	44.01	0
5	235238	44.11	0
5	235784	44.21	0
5	236330	44.31	0
5	236876	44.41	0
5	237422	44.51	0
5	237968	44.61	0
5	238514	44.71	0
5	239060	44.81	0
5	239606	44.91	0
5	240160	45.01	0
5	240706	45.11	0
5	241252	45.21	0
5	241798	45.31	0
5	242344	45.41	0
5	242890	45.51	0
5	243436	45.61	0
5	243982	45.71	0
5	244528	45.81	0
5	245074	45.91	0
5	245628	46.01	0
5	246174	46.11	0
5	246720	46.21	0
5	247266	46.31	0
5	247812	46.41	0
5	248358	46.51	0
5	248904	46.61	0
5	249450	46.71	0
5	249996	46.81	0
5	250542	46.91	0
5	251096	47.01	0
5	251642	47.11	0
5	252188	47.21	0
5	252734	47.31	0
5	253280	47.41	0
5	253826	47.51	0
5	254372	47.61	0
5	254918	47.71	0
5	255464	47.81	0
5	256010	47.91	0
5	256564	48.01	0
5	257110	48.11	0
5	257656	48.21	0
5	258202	48.31	0
5	258748	48.41	0
5	259294	48.51	0
5	259840	48.61	0
5	260386	48.71	0
5	260932	48.81	0
5	261478	48.91	0
5	262032	49.01	0
5	262578	49.11	0
5	263124	49.21	0
5	263670	49.31	0
5	264216	49.41	0
5	264762	49.51	0
5	265308	49.61	0
5	265854	49.71	0
5	266400	49.81	0
5	266946	49.91	0
5	267500	50.01	0
5	268046	50.11	0
5	268592	50.21	0
5	269138	50.31	0
5	269684	50.41	0
5	270230	50.51	0
5	270776	50.61	0
5	271322	50.71	0
5	271868	50.81	0
5	272414	50.91	0
5	272968	51.01	0
5	273514	51.11	0
5	274060	51.21	0
5	274606	51.31	0
5	275152	51.41	0
5	275698	51.51	0
5	276244	51.61	0
5	276790	51.71	0
5	277336	51.81	0
5	277882	51.91	0
5	278436	52.01	0
5	278982	52.11	0
5	279528	52.21	0
5	280074	52.31	0
5	280620	52.41	0
5	281166	52.51	0
5	281712	52.61	0
5	282258	52.71	0
5	282804	52.81	0
5	283350	52.91	0
5	283904	53.01	0
5	284450	53.11	0
5	284996	53.21	0
5	285542	53.31	0
5	286088	53.41	0
5	286634	53.51	0
5	287180	53.61	0
5	287726	53.71	0
5	288272	53.81	0
5	288818	53.91	0
5	289372	54.01	0
5	289918	54.11	0
5	290464	54.21	0
5	291010	54.31	0
5	291556	54.41	0
5	292102	54.51	0
5	292648	54.61	0
5	293194	54.71	0
5	293740	54.81	0
5	294286	54.91	0
5	294840	55.01	0
5	295386	55.11	0
5	295932	55.21	0
5	296478	55.31	0
5	297024	55.41	0
5	297570	55.51	0
5	298116	55.61	0
5	298662	55.71	0
5	299208	55.81	0
5	299754	55.91	0
5	300308	56.01	0
5	300854	56.11	0
5	301400	56.21	0
5	301946	56.31	0
5	302492	56.41	0
5	303038	56.51	0
5	303584	56.61	0
5	304130	56.71	0
5	304676	56.81	0
5	305222	56.91	0
5	305776	57.01	0
5	306322	57.11	0
5	306868	57.21	0
5	307414	57.31	0
5	307960	57.41	0
5	308506	57.51	0
5	309052	57.61	0
5	309598	57.71	0
5	310144	57.81	0
5	310690	57.91	0
5	311244	58.01	0
5	311790	58.11	0
5	312336	58.21	0
5	312882	58.31	0
5	313428	58.41	0
5	313974	58.51	0
5	314520	58.61	0
5	315066	58.71	0
5	315612	58.81	0
5	316158	58.91	0
5	316712	59.01	0
5	317258	59.11	0
5	317804	59.21	0
5	318350	59.31	0
5	318896	59.41	0
5	319442	59.51	0
5	319988	59.61	0
5	320534	59.71	0
5	321080	59.81	0
5	321626	59.91	0
6	113	1.11	286.27
6	659	1.21	289.048
6	1205	1.31	291.826
6	1751	1.41	294.604
6	2297	1.51	297.382
6	2843	1.61	300.16
6	3389	1.71	302.938
6	3935	1.81	305.716
6	4481	1.91	308.494
6	5035	2.01	311.272
6	5581	2.11	314.05
6	6127	2.21	316.828
6	6673	2.31	319.605
6	7219	2.41	322.383
6	7765	2.51	325.161
6	8311	2.61	327.939
6	8857	2.71	330.717
6	9403	2.81	333.495
6	9949	2.91	336.272
6	10503	3.01	339.05
6	11049	3.11	341.828
6	11595	3.21	344.606
6	12141	3.31	347.384
6	12687	3.41	350.161
6	13233	3.51	352.939
6	13779	3.61	355.717
6	14325	3.71	358.495
6	14871	3.81	361.272
6	15417	3.91	364.05
6	15971	4.01	366.828
6	16517	4.11	369.606
6	17063	4.21	372.383
6	17609	4.31	375.161
6	18155	4.41	377.939
6	18701	4.51	380.717
6	19247	4.61	383.495
6	19793	4.71	386.272
6	20339	4.81	389.05
6	20885	4.91	391.828
6	21440	5.01	394.606
6	21986	5.11	397.38
6	22532	5.21	400.138
6	23078	5.31	402.868
6	23624	5.41	405.561
6	24170	5.51	408.21
6	24716	5.61	410.807
6	25262	5.71	413.349
6	25808	5.81	415.83
6	26354	5.91	418.246
6	26908	6.01	420.596
6	27454	6.11	422.877
6	28000	6.21	425.087
6	28546	6.31	427.223
6	29092	6.41	429.286
6	29638	6.51	431.273
6	30184	6.61	433.185
6	30730	6.71	435.02
6	31276	6.81	436.777
6	31822	6.91	438.457
6	32376	7.01	440.058
6	32922	7.11	441.581
6	33468	7.21	443.026
6	34014	7.31	444.391
6	34560	7.41	445.677
6	35106	7.51	446.884
6	35652	7.61	448.011
6	36198	7.71	449.059
6	36744	7.81	450.027
6	37290	7.91	450.915
6	37844	8.01	451.724
6	38390	8.11	452.453
6	38936	8.21	453.102
6	39482	8.31	453.671
6	40028	8.41	454.16
6	40574	8.51	454.569
6	41120	8.61	454.899
6	41666	8.71	455.148
6	42212	8.81	455.318
6	42758	8.91	455.407
6	43312	9.01	455.423
6	43858	9.11	455.423
6	44404	9.21	455.423
6	44950	9.31	455.423
6	45496	9.41	455.423
6	46042	9.51	455.423
6	46588	9.61	455.423
6	47134	9.71	455.423
6	47680	9.81	455.423
6	48226	9.91	455.423
6	48780	10.01	455.423
6	49326	10.11	455.423
6	49872	10.21	455.423
6	50418	10.31	455.423
6	50964	10.41	455.423
6	51510	10.51	455.423
6	52056	10.61	455.423
6	52602	10.71	455.423
6	53148	10.81	455.423
6	53694	10.91	455.423
6	54248	11.01	455.423
6	54794	11.11	455.423
6	55340	11.21	455.423
6	55886	11.31	455.423
6	56432	11.41	455.423
6	56978	11.51	455.423
6	57524	11.61	455.423
6	58070	11.71	455.423
6	58616	11.81	455.423
6	59162	11.91	455.423
6	59716	12.01	455.423
6	60262	12.11	455.423
6	60808	12.21	455.423
6	61354	12.31	455.423
6	61900	12.41	455.423
6	62446	12.51	455.423
6	62992	12.61	455.423
6	63538	12.71	455.423
6	64084	12.81	455.423
6	64630	12.91	455.423
6	65184	13.01	455.423
6	65730	13.11	455.423
6	66276	13.21	455.423
6	66822	13.31	455.423
6	67368	13.41	455.423
6	67914	13.51	455.423
6	68460	13.61	455.423
6	69006	13.71	455.423
6	69552	13.81	455.423
6	70098	13.91	455.423
6	70652	14.01	455.423
6	71198	14.11	455.423
6	71744	14.21	455.423
6	72290	14.31	455.423
6	72836	14.41	455.423
6	73382	14.51	455.423
6	73928	14.61	455.423
6	74474	14.71	455.423
6	75020	14.81	455.423
6	75566	14.91	455.423
6	76120	15.01	455.423
6	76666	15.11	455.423
6	77212	15.21	455.423
6	77758	15.31	455.423
6	78304	15.41	455.423
6	78850	15.51	455.423
6	79396	15.61	455.423
6	79942	15.71	455.423
6	80488	15.81	455.423
6	81034	15.91	455.423
6	81588	16.01	455.423
6	82134	16.11	455.423
6	82680	16.21	455.423
6	83226	16.31	455.423
6	83772	16.41	455.423
6	84318	16.51	455.423
6	84864	16.61	455.423
6	85410	16.71	455.423
6	85956	16.81	455.423
6	86502	16.91	455.423
6	87056	17.01	455.423
6	87602	17.11	455.423
6	88148	17.21	455.423
6	88694	17.31	455.423
6	89240	17.41	455.423
6	89786	17.51	455.423
6	90332	17.61	455.423
6	90878	17.71	455.423
6	91424	17.81	455.423
6	91970	17.91	455.423
6	92524	18.01	455.423
6	93070	18.11	455.423
6	93616	18.21	455.423
6	94162	18.31	455.423
6	94708	18.41	455.423
6	95254	18.51	455.423
6	95800	18.61	455.423
6	96346	18.71	455.423
6	96892	18.81	455.423
6	97438	18.91	455.423
6	97992	19.01	455.423
6	98538	19.11	455.423
6	99084	19.21	455.423
6	99630	19.31	455.423
6	100176	19.41	455.423
6	100722	19.51	455.423
6	101268	19.61	455.423
6	101814	19.71	455.423
6	102360	19.81	455.423
6	102906	19.91	455.423
6	103460	20.01	455.423
6	104006	20.11	455.423
6	104552	20.21	455.423
6	105098	20.31	455.423
6	105644	20.41	455.423
6	106190	20.51	455.423
6	106736	20.61	455.423
6	107282	20.71	455.423
6	107828	20.81	455.423
6	108374	20.91	455.423
6	108928	21.01	455.423
6	109474	21.11	455.423
6	110020	21.21	455.423
6	110566	21.31	455.423
6	111112	21.41	455.423
6	111658	21.51	455.423
6	112204	21.61	455.423
6	112750	21.71	455.423
6	113296	21.81	455.423
6	113842	21.91	455.423
6	114396	22.01	455.423
6	114942	22.11	455.423
6	115488	22.21	455.423
6	116034	22.31	455.423
6	116580	22.41	455.423
6	117126	22.51	455.423
6	117672	22.61	455.423
6	118218	22.71	455.423
6	118764	22.81	455.423
6	119310	22.91	455.423
6	119864	23.01	455.423
6	120410	23.11	455.423
6	120956	23.21	455.423
6	121502	23.31	455.423
6	122048	23.41	455.423
6	122594	23.51	455.423
6	123140	23.61	455.423
6	123686	23.71	455.423
6	124232	23.81	455.423
6	124778	23.91	455.423
6	125332	24.01	455.423
6	125878	24.11	455.423
6	126424	24.21	455.423
6	126970	24.31	455.423
6	127516	24.41	455.423
6	128062	24.51	455.423
6	128608	24.61	455.423
6	129154	24.71	455.423
6	129700	24.81	455.423
6	130246	24.91	455.423
6	130800	25.01	455.423
6	131346	25.11	455.423
6	131892	25.21	455.423
6	132438	25.31	455.423
6	132984	25.41	455.423
6	133530	25.51	455.423
6	134076	25.61	455.423
6	134622	25.71	455.423
6	135168	25.81	455.423
6	135714	25.91	455.423
6	136268	26.01	455.423
6	136814	26.11	455.423
6	137360	26.21	455.423
6	137906	26.31	455.423
6	138452	26.41	455.423
6	138998	26.51	455.423
6	139544	26.61	455.423
6	140090	26.71	455.423
6	140636	26.81	455.423
6	141182	26.91	455.423
6	141736	27.01	455.423
6	142282	27.11	455.423
6	142828	27.21	455.423
6	143374	27.31	455.423
6	143920	27.41	455.423
6	144466	27.51	455.423
6	145012	27.61	455.423
6	145558	27.71	455.423
6	146104	27.81	455.423
6	146650	27.91	455.423
6	147204	28.01	455.423
6	147750	28.11	455.423
6	148296	28.21	455.423
6	148842	28.31	455.423
6	149388	28.41	455.423
6	149934	28.51	455.423
6	150480	28.61	455.423
6	151026	28.71	455.423
6	151572	28.81	455.423
6	152118	28.91	455.423
6	152672	29.01	455.423
6	153218	29.11	455.423
6	153764	29.21	455.423
6	154310	29.31	455.423
6	154856	29.41	455.423
6	155402	29.51	455.423
6	155948	29.61	455.423
6	156494	29.71	455.423
6	157040	29.81	455.423
6	157586	29.91	455.423
6	158140	30.01	455.423
6	158686	30.11	455.423
6	159232	30.21	455.423
6	159778	30.31	455.423
6	160324	30.41	455.423
6	160870	30.51	455.423
6	161416	30.61	455.423
6	161962	30.71	455.423
6	162508	30.81	455.423
6	163054	30.91	455.423
6	163608	31.01	455.423
6	164154	31.11	455.423
6	164700	31.21	455.423
6	165246	31.31	455.423
6	165792	31.41	455.423
6	166338	31.51	455.423
6	166884	31.61	455.423
6	167430	31.71	455.423
6	167976	31.81	455.423
6	168522	31.91	455.423
6	169076	32.01	455.423
6	169622	32.11	455.423
6	170168	32.21	455.423
6	170714	32.31	455.423
6	171260	32.41	455.423
6	171806	32.51	455.423
6	172352	32.61	455.423
6	172898	32.71	455.423
6	173444	32.81	455.423
6	173990	32.91	455.423
6	174544	33.01	455.423
6	175090	33.11	455.423
6	175636	33.21	455.423
6	176182	33.31	455.423
6	176728	33.41	455.423
6	177274	33.51	455.423
6	177820	33.61	455.423
6	178366	33.71	455.423
6	178912	33.81	455.423
6	179458	33.91	455.423
6	180012	34.01	455.423
6	180558	34.11	455.423
6	181104	34.21	455.423
6	181650	34.31	455.423
6	182196	34.41	455.423
6	182742	34.51	455.423
6	183288	34.61	455.423
6	183834	34.71	455.423
6	184380	34.81	455.423
6	184926	34.91	455.423
6	185480	35.01	455.423
6	186026	35.11	455.423
6	186572	35.21	455.423
6	187118	35.31	455.423
6	187664	35.41	455.423
6	188210	35.51	455.423
6	188756	35.61	455.423
6	189302	35.71	455.423
6	189848	35.81	455.423
6	190394	35.91	455.423
6	190948	36.01	455.423
6	191494	36.11	455.423
6	192040	36.21	455.423
6	192586	36.31	455.423
6	193132	36.41	455.423
6	193678	36.51	455.423
6	194224	36.61	455.423
6	194770	36.71	455.423
6	195316	36.81	455.423
6	195862	36.91	455.423
6	196416	37.01	455.423
6	196962	37.11	455.423
6	197508	37.21	455.423
6	198054	37.31	455.423
6	198600	37.41	455.423
6	199146	37.51	455.423
6	199692	37.61	455.423
6	200238	37.71	455.423
6	200784	37.81	455.423
6	201330	37.91	455.423
6	201884	38.01	455.423
6	202430	38.11	455.423
6	202976	38.21	455.423
6	203522	38.31	455.423
6	204068	38.41	455.423
6	204614	38.51	455.423
6	205160	38.61	455.423
6	205706	38.71	455.423
6	206252	38.81	455.423
6	206798	38.91	455.423
6	207352	39.01	455.423
6	207898	39.11	455.423
6	208444	39.21	455.423
[...]
96	168936	32	0.02497
96	174404	33	0.02497
96	179872	34	0.02497
96	185340	35	0.02497
96	190808	36	0.02497
96	196276	37	0.02497
96	201744	38	0.02497
96	207212	39	0.02497
96	212680	40	0.02497
96	218148	41	0.02497
96	223616	42	0.02497
96	229084	43	0.02497
96	234552	44	0.02497
96	240020	45	0.02497
96	245488	46	0.02497
96	250956	47	0.02497
96	256424	48	0.02497
96	261892	49	0.02497
96	267360	50	0.02497
96	272828	51	0.02497
96	278296	52	0.02497
96	283764	53	0.02497
96	289232	54	0.02497
96	294700	55	0.02497
96	300168	56	0.02497
96	305636	57	0.02497
96	311104	58	0.02497
96	316572	59	0.02497
96	322040	60	0.02497
97	4895	2	0
97	10363	3	0
97	15831	4	0
97	21300	5	0
97	26768	6	0
97	32236	7	0
97	37704	8	0
97	43172	9	0
97	48640	10	0
97	54108	11	0
97	59576	12	0
97	65044	13	0
97	70512	14	0
97	75980	15	0
97	81448	16	0
97	86916	17	0
97	92384	18	0
97	97852	19	0
97	103320	20	0
97	108788	21	0
97	114256	22	0
97	119724	23	0
97	125192	24	0
97	130660	25	0
97	136128	26	0
97	141596	27	0
97	147064	28	0
97	152532	29	0
97	158000	30	0
97	163468	31	0
97	168936	32	0
97	174404	33	0
97	179872	34	0
97	185340	35	0
97	190808	36	0
97	196276	37	0
97	201744	38	0
97	207212	39	0
97	212680	40	0
97	218148	41	0
97	223616	42	0
97	229084	43	0
97	234552	44	0
97	240020	45	0
97	245488	46	0
97	250956	47	0
97	256424	48	0
97	261892	49	0
97	267360	50	0
97	272828	51	0
97	278296	52	0
97	283764	53	0
97	289232	54	0
97	294700	55	0
97	300168	56	0
97	305636	57	0
97	311104	58	0
97	316572	59	0
97	322040	60	0
98	4896	2	2
98	10364	3	2
98	15832	4	2
98	21301	5	2
98	26769	6	2
98	32237	7	2
98	37705	8	2
98	43173	9	2
98	48641	10	2
98	54109	11	2
98	59577	12	2
98	65045	13	2
98	70513	14	2
98	75981	15	2
98	81449	16	2
98	86917	17	2
98	92385	18	2
98	97853	19	2
98	103321	20	2
98	108789	21	2
98	114257	22	2
98	119725	23	2
98	125193	24	2
98	130661	25	2
98	136129	26	2
98	141597	27	2
98	147065	28	2
98	152533	29	2
98	158001	30	2
98	163469	31	2
98	168937	32	2
98	174405	33	2
98	179873	34	2
98	185341	35	2
98	190809	36	2
98	196277	37	2
98	201745	38	2
98	207213	39	2
98	212681	40	2
98	218149	41	2
98	223617	42	2
98	229085	43	2
98	234553	44	2
98	240021	45	2
98	245489	46	2
98	250957	47	2
98	256425	48	2
98	261893	49	2
98	267361	50	2
98	272829	51	2
98	278297	52	2
98	283765	53	2
98	289233	54	2
98	294701	55	2
98	300169	56	2
98	305637	57	2
98	311105	58	2
98	316573	59	2
98	322041	60	2
99	4896	2	0.021849
99	10364	3	0.02497
99	15832	4	0.02497
99	21301	5	0.02497
99	26769	6	0.02497
99	32237	7	0.02497
99	37705	8	0.02497
99	43173	9	0.02497
99	48641	10	0.02497
99	54109	11	0.02497
99	59577	12	0.02497
99	65045	13	0.02497
99	70513	14	0.02497
99	75981	15	0.02497
99	81449	16	0.02497
99	86917	17	0.02497
99	92385	18	0.02497
99	97853	19	0.02497
99	103321	20	0.02497
99	108789	21	0.02497
99	114257	22	0.02497
99	119725	23	0.02497
99	125193	24	0.02497
99	130661	25	0.02497
99	136129	26	0.02497
99	141597	27	0.02497
99	147065	28	0.02497
99	152533	29	0.02497
99	158001	30	0.02497
99	163469	31	0.02497
99	168937	32	0.02497
99	174405	33	0.02497
99	179873	34	0.02497
99	185341	35	0.02497
99	190809	36	0.02497
99	196277	37	0.02497
99	201745	38	0.02497
99	207213	39	0.02497
99	212681	40	0.02497
99	218149	41	0.02497
99	223617	42	0.02497
99	229085	43	0.02497
99	234553	44	0.02497
99	240021	45	0.02497
99	245489	46	0.02497
99	250957	47	0.02497
99	256425	48	0.02497
99	261893	49	0.02497
99	267361	50	0.02497
99	272829	51	0.02497
99	278297	52	0.02497
99	283765	53	0.02497
99	289233	54	0.02497
99	294701	55	0.02497
99	300169	56	0.02497
99	305637	57	0.02497
99	311105	58	0.02497
99	316573	59	0.02497
99	322041	60	0.02497
100	4896	2	0
100	10364	3	0
100	15832	4	0
100	21301	5	0
100	26769	6	0
100	32237	7	0
100	37705	8	0
100	43173	9	0
100	48641	10	0
100	54109	11	0
100	59577	12	0
100	65045	13	0
100	70513	14	0
100	75981	15	0
100	81449	16	0
100	86917	17	0
100	92385	18	0
100	97853	19	0
100	103321	20	0
100	108789	21	0
100	114257	22	0
100	119725	23	0
100	125193	24	0
100	130661	25	0
100	136129	26	0
100	141597	27	0
100	147065	28	0
100	152533	29	0
100	158001	30	0
100	163469	31	0
100	168937	32	0
100	174405	33	0
100	179873	34	0
100	185341	35	0
100	190809	36	0
100	196277	37	0
100	201745	38	0
100	207213	39	0
100	212681	40	0
100	218149	41	0
100	223617	42	0
100	229085	43	0
100	234553	44	0
100	240021	45	0
100	245489	46	0
100	250957	47	0
100	256425	48	0
100	261893	49	0
100	267361	50	0
100	272829	51	0
100	278297	52	0
100	283765	53	0
100	289233	54	0
100	294701	55	0
100	300169	56	0
100	305637	57	0
100	311105	58	0
100	316573	59	0
100	322041	60	0
101	4897	2	3
101	10365	3	3
101	15833	4	3
101	21302	5	3
101	26770	6	3
101	32238	7	3
101	37706	8	3
101	43174	9	3
101	48642	10	3
101	54110	11	3
101	59578	12	3
101	65046	13	3
101	70514	14	3
101	75982	15	3
101	81450	16	3
101	86918	17	3
101	92386	18	3
101	97854	19	3
101	103322	20	3
101	108790	21	3
101	114258	22	3
101	119726	23	3
101	125194	24	3
101	130662	25	3
101	136130	26	3
101	141598	27	3
101	147066	28	3
101	152534	29	3
101	158002	30	3
101	163470	31	3
101	168938	32	3
101	174406	33	3
101	179874	34	3
101	185342	35	3
101	190810	36	3
101	196278	37	3
101	201746	38	3
101	207214	39	3
101	212682	40	3
101	218150	41	3
101	223618	42	3
101	229086	43	3
101	234554	44	3
101	240022	45	3
101	245490	46	3
101	250958	47	3
101	256426	48	3
101	261894	49	3
101	267362	50	3
101	272830	51	3
101	278298	52	3
101	283766	53	3
101	289234	54	3
101	294702	55	3
101	300170	56	3
101	305638	57	3
101	311106	58	3
101	316574	59	3
101	322042	60	3
102	4897	2	0.021848
102	10365	3	0.02497
102	15833	4	0.02497
102	21302	5	0.02497
102	26770	6	0.02497
102	32238	7	0.02497
102	37706	8	0.02497
102	43174	9	0.02497
102	48642	10	0.02497
102	54110	11	0.02497
102	59578	12	0.02497
102	65046	13	0.02497
102	70514	14	0.02497
102	75982	15	0.02497
102	81450	16	0.02497
102	86918	17	0.02497
102	92386	18	0.02497
102	97854	19	0.02497
102	103322	20	0.02497
102	108790	21	0.02497
102	114258	22	0.02497
102	119726	23	0.02497
102	125194	24	0.02497
102	130662	25	0.02497
102	136130	26	0.02497
102	141598	27	0.02497
102	147066	28	0.02497
102	152534	29	0.02497
102	158002	30	0.02497
102	163470	31	0.02497
102	168938	32	0.02497
102	174406	33	0.02497
102	179874	34	0.02497
102	185342	35	0.02497
102	190810	36	0.02497
102	196278	37	0.02497
102	201746	38	0.02497
102	207214	39	0.02497
102	212682	40	0.02497
102	218150	41	0.02497
102	223618	42	0.02497
102	229086	43	0.02497
102	234554	44	0.02497
102	240022	45	0.02497
102	245490	46	0.02497
102	250958	47	0.02497
102	256426	48	0.02497
102	261894	49	0.02497
102	267362	50	0.02497
102	272830	51	0.02497
102	278298	52	0.02497
102	283766	53	0.02497
102	289234	54	0.02497
102	294702	55	0.02497
102	300170	56	0.02497
102	305638	57	0.02497
102	311106	58	0.02497
102	316574	59	0.02497
102	322042	60	0.02497
103	4897	2	0
103	10365	3	0
103	15833	4	0
103	21302	5	0
103	26770	6	0
103	32238	7	0
103	37706	8	0
103	43174	9	0
103	48642	10	0
103	54110	11	0
103	59578	12	0
103	65046	13	0
103	70514	14	0
103	75982	15	0
103	81450	16	0
103	86918	17	0
103	92386	18	0
103	97854	19	0
103	103322	20	0
103	108790	21	0
103	114258	22	0
103	119726	23	0
103	125194	24	0
103	130662	25	0
103	136130	26	0
103	141598	27	0
103	147066	28	0
103	152534	29	0
103	158002	30	0
103	163470	31	0
103	168938	32	0
103	174406	33	0
103	179874	34	0
103	185342	35	0
103	190810	36	0
103	196278	37	0
103	201746	38	0
103	207214	39	0
103	212682	40	0
103	218150	41	0
103	223618	42	0
103	229086	43	0
103	234554	44	0
103	240022	45	0
103	245490	46	0
103	250958	47	0
103	256426	48	0
103	261894	49	0
103	267362	50	0
103	272830	51	0
103	278298	52	0
103	283766	53	0
103	289234	54	0
103	294702	55	0
103	300170	56	0
103	305638	57	0
103	311106	58	0
103	316574	59	0
103	322042	60	0
104	4898	2	4
104	10366	3	4
104	15834	4	4
104	21303	5	4
104	26771	6	4
104	32239	7	4
104	37707	8	4
104	43175	9	4
104	48643	10	4
104	54111	11	4
104	59579	12	4
104	65047	13	4
104	70515	14	4
104	75983	15	4
104	81451	16	4
104	86919	17	4
104	92387	18	4
104	97855	19	4
104	103323	20	4
104	108791	21	4
104	114259	22	4
104	119727	23	4
104	125195	24	4
104	130663	25	4
104	136131	26	4
104	141599	27	4
104	147067	28	4
104	152535	29	4
104	158003	30	4
104	163471	31	4
104	168939	32	4
104	174407	33	4
104	179875	34	4
104	185343	35	4
104	190811	36	4
104	196279	37	4
104	201747	38	4
104	207215	39	4
104	212683	40	4
104	218151	41	4
104	223619	42	4
104	229087	43	4
104	234555	44	4
104	240023	45	4
104	245491	46	4
104	250959	47	4
104	256427	48	4
104	261895	49	4
104	267363	50	4
104	272831	51	4
104	278299	52	4
104	283767	53	4
104	289235	54	4
104	294703	55	4
104	300171	56	4
104	305639	57	4
104	311107	58	4
104	316575	59	4
104	322043	60	4
105	4898	2	0.021849
105	10366	3	0.02497
105	15834	4	0.02497
105	21303	5	0.02497
105	26771	6	0.02497
105	32239	7	0.02497
105	37707	8	0.02497
105	43175	9	0.02497
105	48643	10	0.02497
105	54111	11	0.02497
105	59579	12	0.02497
105	65047	13	0.02497
105	70515	14	0.02497
105	75983	15	0.02497
105	81451	16	0.02497
105	86919	17	0.02497
105	92387	18	0.02497
105	97855	19	0.02497
105	103323	20	0.02497
105	108791	21	0.02497
105	114259	22	0.02497
105	119727	23	0.02497
105	125195	24	0.02497
105	130663	25	0.02497
105	136131	26	0.02497
105	141599	27	0.02497
105	147067	28	0.02497
105	152535	29	0.02497
105	158003	30	0.02497
105	163471	31	0.02497
105	168939	32	0.02497
105	174407	33	0.02497
105	179875	34	0.02497
105	185343	35	0.02497
105	190811	36	0.02497
105	196279	37	0.02497
105	201747	38	0.02497
105	207215	39	0.02497
105	212683	40	0.02497
105	218151	41	0.02497
105	223619	42	0.02497
105	229087	43	0.02497
105	234555	44	0.02497
105	240023	45	0.02497
105	245491	46	0.02497
105	250959	47	0.02497
105	256427	48	0.02497
105	261895	49	0.02497
105	267363	50	0.02497
105	272831	51	0.02497
105	278299	52	0.02497
105	283767	53	0.02497
105	289235	54	0.02497
105	294703	55	0.02497
105	300171	56	0.02497
105	305639	57	0.02497
105	311107	58	0.02497
105	316575	59	0.02497
105	322043	60	0.02497
106	4898	2	0
106	10366	3	0
106	15834	4	0
106	21303	5	0
106	26771	6	0
106	32239	7	0
106	37707	8	0
106	43175	9	0
106	48643	10	0
106	54111	11	0
106	59579	12	0
106	65047	13	0
106	70515	14	0
106	75983	15	0
106	81451	16	0
106	86919	17	0
106	92387	18	0
106	97855	19	0
106	103323	20	0
106	108791	21	0
106	114259	22	0
106	119727	23	0
106	125195	24	0
106	130663	25	0
106	136131	26	0
106	141599	27	0
106	147067	28	0
106	152535	29	0
106	158003	30	0
106	163471	31	0
106	168939	32	0
106	174407	33	0
106	179875	34	0
106	185343	35	0
106	190811	36	0
106	196279	37	0
106	201747	38	0
106	207215	39	0
106	212683	40	0
106	218151	41	0
106	223619	42	0
106	229087	43	0
106	234555	44	0
106	240023	45	0
106	245491	46	0
106	250959	47	0
106	256427	48	0
106	261895	49	0
106	267363	50	0
106	272831	51	0
106	278299	52	0
106	283767	53	0
106	289235	54	0
106	294703	55	0
106	300171	56	0
106	305639	57	0
106	311107	58	0
106	316575	59	0
106	322043	60	0
107	4899	2	5
107	10367	3	5
107	15835	4	5
107	21304	5	5
107	26772	6	5
107	32240	7	5
107	37708	8	5
107	43176	9	5
107	48644	10	5
107	54112	11	5
107	59580	12	5
107	65048	13	5
107	70516	14	5
107	75984	15	5
107	81452	16	5
107	86920	17	5
107	92388	18	5
107	97856	19	5
107	103324	20	5
107	108792	21	5
107	114260	22	5
107	119728	23	5
107	125196	24	5
107	130664	25	5
107	136132	26	5
107	141600	27	5
107	147068	28	5
107	152536	29	5
107	158004	30	5
107	163472	31	5
107	168940	32	5
107	174408	33	5
107	179876	34	5
107	185344	35	5
107	190812	36	5
107	196280	37	5
107	201748	38	5
107	207216	39	5
107	212684	40	5
107	218152	41	5
107	223620	42	5
107	229088	43	5
107	234556	44	5
107	240024	45	5
107	245492	46	5
107	250960	47	5
107	256428	48	5
107	261896	49	5
107	267364	50	5
107	272832	51	5
107	278300	52	5
107	283768	53	5
107	289236	54	5
107	294704	55	5
107	300172	56	5
107	305640	57	5
107	311108	58	5
107	316576	59	5
107	322044	60	5
108	4899	2	0.021848
108	10367	3	0.02497
108	15835	4	0.02497
108	21304	5	0.02497
108	26772	6	0.02497
108	32240	7	0.02497
108	37708	8	0.02497
108	43176	9	0.02497
108	48644	10	0.02497
108	54112	11	0.02497
108	59580	12	0.02497
108	65048	13	0.02497
108	70516	14	0.02497
108	75984	15	0.02497
108	81452	16	0.02497
108	86920	17	0.02497
108	92388	18	0.02497
108	97856	19	0.02497
108	103324	20	0.02497
108	108792	21	0.02497
108	114260	22	0.02497
108	119728	23	0.02497
108	125196	24	0.02497
108	130664	25	0.02497
108	136132	26	0.02497
108	141600	27	0.02497
108	147068	28	0.02497
108	152536	29	0.02497
108	158004	30	0.02497
108	163472	31	0.02497
108	168940	32	0.02497
108	174408	33	0.02497
108	179876	34	0.02497
108	185344	35	0.02497
108	190812	36	0.02497
108	196280	37	0.02497
108	201748	38	0.02497
108	207216	39	0.02497
108	212684	40	0.02497
108	218152	41	0.02497
108	223620	42	0.02497
108	229088	43	0.02497
108	234556	44	0.02497
108	240024	45	0.02497
108	245492	46	0.02497
108	250960	47	0.02497
108	256428	48	0.02497
108	261896	49	0.02497
108	267364	50	0.02497
108	272832	51	0.02497
108	278300	52	0.02497
108	283768	53	0.02497
108	289236	54	0.02497
108	294704	55	0.02497
108	300172	56	0.02497
108	305640	57	0.02497
108	311108	58	0.02497
108	316576	59	0.02497
108	322044	60	0.02497
109	4899	2	0
109	10367	3	0
109	15835	4	0
109	21304	5	0
109	26772	6	0
109	32240	7	0
109	37708	8	0
109	43176	9	0
109	48644	10	0
109	54112	11	0
109	59580	12	0
109	65048	13	0
109	70516	14	0
109	75984	15	0
109	81452	16	0
109	86920	17	0
109	92388	18	0
109	97856	19	0
109	103324	20	0
109	108792	21	0
109	114260	22	0
109	119728	23	0
109	125196	24	0
109	130664	25	0
109	136132	26	0
109	141600	27	0
109	147068	28	0
109	152536	29	0
109	158004	30	0
109	163472	31	0
109	168940	32	0
109	174408	33	0
109	179876	34	0
109	185344	35	0
109	190812	36	0
109	196280	37	0
109	201748	38	0
109	207216	39	0
109	212684	40	0
109	218152	41	0
109	223620	42	0
109	229088	43	0
109	234556	44	0
109	240024	45	0
109	245492	46	0
109	250960	47	0
109	256428	48	0
109	261896	49	0
109	267364	50	0
109	272832	51	0
109	278300	52	0
109	283768	53	0
109	289236	54	0
109	294704	55	0
109	300172	56	0
109	305640	57	0
109	311108	58	0
109	316576	59	0
109	322044	60	0
110	4900	2	6
110	10368	3	6
110	15836	4	6
110	21305	5	6
110	26773	6	6
110	32241	7	6
110	37709	8	6
110	43177	9	6
110	48645	10	6
110	54113	11	6
110	59581	12	6
110	65049	13	6
110	70517	14	6
110	75985	15	6
110	81453	16	6
110	86921	17	6
110	92389	18	6
110	97857	19	6
110	103325	20	6
110	108793	21	6
110	114261	22	6
110	119729	23	6
110	125197	24	6
110	130665	25	6
110	136133	26	6
110	141601	27	6
110	147069	28	6
110	152537	29	6
110	158005	30	6
110	163473	31	6
110	168941	32	6
110	174409	33	6
110	179877	34	6
110	185345	35	6
110	190813	36	6
110	196281	37	6
110	201749	38	6
110	207217	39	6
110	212685	40	6
110	218153	41	6
110	223621	42	6
110	229089	43	6
110	234557	44	6
110	240025	45	6
110	245493	46	6
110	250961	47	6
110	256429	48	6
110	261897	49	6
110	267365	50	6
110	272833	51	6
110	278301	52	6
110	283769	53	6
110	289237	54	6
110	294705	55	6
110	300173	56	6
110	305641	57	6
110	311109	58	6
110	316577	59	6
110	322045	60	6
111	4900	2	0.021849
111	10368	3	0.02497
111	15836	4	0.02497
111	21305	5	0.02497
111	26773	6	0.02497
111	32241	7	0.02497
111	37709	8	0.02497
111	43177	9	0.02497
111	48645	10	0.02497
111	54113	11	0.02497
111	59581	12	0.02497
111	65049	13	0.02497
111	70517	14	0.02497
111	75985	15	0.02497
111	81453	16	0.02497
111	86921	17	0.02497
111	92389	18	0.02497
111	97857	19	0.02497
111	103325	20	0.02497
111	108793	21	0.02497
111	114261	22	0.02497
111	119729	23	0.02497
111	125197	24	0.02497
111	130665	25	0.02497
111	136133	26	0.02497
111	141601	27	0.02497
111	147069	28	0.02497
111	152537	29	0.02497
111	158005	30	0.02497
111	163473	31	0.02497
111	168941	32	0.02497
111	174409	33	0.02497
111	179877	34	0.02497
111	185345	35	0.02497
111	190813	36	0.02497
111	196281	37	0.02497
111	201749	38	0.02497
111	207217	39	0.02497
111	212685	40	0.02497
111	218153	41	0.02497
111	223621	42	0.02497
111	229089	43	0.02497
111	234557	44	0.02497
111	240025	45	0.02497
111	245493	46	0.02497
111	250961	47	0.02497
111	256429	48	0.02497
111	261897	49	0.02497
111	267365	50	0.02497
111	272833	51	0.02497
111	278301	52	0.02497
111	283769	53	0.02497
111	289237	54	0.02497
111	294705	55	0.02497
111	300173	56	0.02497
111	305641	57	0.02497
111	311109	58	0.02497
111	316577	59	0.02497
111	322045	60	0.02497
112	4900	2	0
112	10368	3	0
112	15836	4	0
112	21305	5	0
112	26773	6	0
112	32241	7	0
112	37709	8	0
112	43177	9	0
112	48645	10	0
112	54113	11	0
112	59581	12	0
112	65049	13	0
112	70517	14	0
112	75985	15	0
112	81453	16	0
112	86921	17	0
112	92389	18	0
112	97857	19	0
112	103325	20	0
112	108793	21	0
112	114261	22	0
112	119729	23	0
112	125197	24	0
112	130665	25	0
112	136133	26	0
112	141601	27	0
112	147069	28	0
112	152537	29	0
112	158005	30	0
112	163473	31	0
112	168941	32	0
112	174409	33	0
112	179877	34	0
112	185345	35	0
112	190813	36	0
112	196281	37	0
112	201749	38	0
112	207217	39	0
112	212685	40	0
112	218153	41	0
112	223621	42	0
112	229089	43	0
112	234557	44	0
112	240025	45	0
112	245493	46	0
112	250961	47	0
112	256429	48	0
112	261897	49	0
112	267365	50	0
112	272833	51	0
112	278301	52	0
112	283769	53	0
112	289237	54	0
112	294705	55	0
112	300173	56	0
112	305641	57	0
112	311109	58	0
112	316577	59	0
112	322045	60	0
113	4901	2	7
113	10369	3	7
113	15837	4	7
113	21306	5	7
113	26774	6	7
113	32242	7	7
113	37710	8	7
113	43178	9	7
113	48646	10	7
113	54114	11	7
113	59582	12	7
113	65050	13	7
113	70518	14	7
113	75986	15	7
113	81454	16	7
113	86922	17	7
113	92390	18	7
113	97858	19	7
113	103326	20	7
113	108794	21	7
113	114262	22	7
113	119730	23	7
113	125198	24	7
113	130666	25	7
113	136134	26	7
113	141602	27	7
113	147070	28	7
113	152538	29	7
113	158006	30	7
113	163474	31	7
113	168942	32	7
113	174410	33	7
113	179878	34	7
113	185346	35	7
113	190814	36	7
113	196282	37	7
113	201750	38	7
113	207218	39	7
113	212686	40	7
113	218154	41	7
113	223622	42	7
113	229090	43	7
113	234558	44	7
113	240026	45	7
113	245494	46	7
113	250962	47	7
113	256430	48	7
113	261898	49	7
113	267366	50	7
113	272834	51	7
113	278302	52	7
113	283770	53	7
113	289238	54	7
113	294706	55	7
113	300174	56	7
113	305642	57	7
113	311110	58	7
113	316578	59	7
113	322046	60	7
114	4901	2	0.021849
114	10369	3	0.02497
114	15837	4	0.02497
114	21306	5	0.02497
114	26774	6	0.02497
114	32242	7	0.02497
114	37710	8	0.02497
114	43178	9	0.02497
114	48646	10	0.02497
114	54114	11	0.02497
114	59582	12	0.02497
114	65050	13	0.02497
114	70518	14	0.02497
114	75986	15	0.02497
114	81454	16	0.02497
114	86922	17	0.02497
114	92390	18	0.02497
114	97858	19	0.02497
114	103326	20	0.02497
114	108794	21	0.02497
114	114262	22	0.02497
114	119730	23	0.02497
114	125198	24	0.02497
114	130666	25	0.02497
114	136134	26	0.02497
114	141602	27	0.02497
114	147070	28	0.02497
114	152538	29	0.02497
114	158006	30	0.02497
114	163474	31	0.02497
114	168942	32	0.02497
114	174410	33	0.02497
114	179878	34	0.02497
114	185346	35	0.02497
114	190814	36	0.02497
114	196282	37	0.02497
114	201750	38	0.02497
114	207218	39	0.02497
114	212686	40	0.02497
114	218154	41	0.02497
114	223622	42	0.02497
114	229090	43	0.02497
114	234558	44	0.02497
114	240026	45	0.02497
114	245494	46	0.02497
114	250962	47	0.02497
114	256430	48	0.02497
114	261898	49	0.02497
114	267366	50	0.02497
114	272834	51	0.02497
114	278302	52	0.02497
114	283770	53	0.02497
114	289238	54	0.02497
114	294706	55	0.02497
114	300174	56	0.02497
114	305642	57	0.02497
114	311110	58	0.02497
114	316578	59	0.02497
114	322046	60	0.02497
115	4901	2	0
115	10369	3	0
115	15837	4	0
115	21306	5	0
115	26774	6	0
115	32242	7	0
115	37710	8	0
115	43178	9	0
115	48646	10	0
115	54114	11	0
115	59582	12	0
115	65050	13	0
115	70518	14	0
115	75986	15	0
115	81454	16	0
115	86922	17	0
115	92390	18	0
115	97858	19	0
115	103326	20	0
115	108794	21	0
115	114262	22	0
115	119730	23	0
115	125198	24	0
115	130666	25	0
115	136134	26	0
115	141602	27	0
115	147070	28	0
115	152538	29	0
115	158006	30	0
115	163474	31	0
115	168942	32	0
115	174410	33	0
115	179878	34	0
115	185346	35	0
115	190814	36	0
115	196282	37	0
115	201750	38	0
115	207218	39	0
115	212686	40	0
115	218154	41	0
115	223622	42	0
115	229090	43	0
115	234558	44	0
115	240026	45	0
115	245494	46	0
115	250962	47	0
115	256430	48	0
115	261898	49	0
115	267366	50	0
115	272834	51	0
115	278302	52	0
115	283770	53	0
115	289238	54	0
115	294706	55	0
115	300174	56	0
115	305642	57	0
115	311110	58	0
115	316578	59	0
115	322046	60	0

