version 3
run Braking-0-20240820-16:23:41-5727
attr configname Braking
attr datetime 20240820-16:23:41
attr datetimef 20240820-162341
attr experiment Braking
attr inifile omnetpp.ini
attr iterationvars "$nCars=8, $platoonSize=8, $nLanes=1, $ploegH=0.5, $controller=0, $headway=0.3, $leaderHeadway=1.2, $leaderSpeed=100, $beaconInterval=0.1, $priority=4, $packetSize=200, $sController=\"ACC\", $0=2, $1=0.3"
attr iterationvarsd nCars=8/platoonSize=8/nLanes=1/ploegH=0.5/controller=0/headway=0.3/leaderHeadway=1.2/leaderSpeed=100/beaconInterval=0.1/priority=4/packetSize=200/sController=ACC/2/0.3
attr iterationvarsf nCars=8,platoonSize=8,nLanes=1,ploegH=0.5,controller=0,headway=0.3,leaderHeadway=1.2,leaderSpeed=100,beaconInterval=0.1,priority=4,packetSize=200,sController=ACC,2,0.3-
attr measurement "$nCars=8, $platoonSize=8, $nLanes=1, $ploegH=0.5, $controller=0, $headway=0.3, $leaderHeadway=1.2, $leaderSpeed=100, $beaconInterval=0.1, $priority=4, $packetSize=200, $sController=\"ACC\", $0=2, $1=0.3"
attr network Platooning
attr processid 5727
attr repetition 0
attr replication #0
attr resultdir results
attr runnumber 0
attr seedset 0
itervar beaconInterval 0.1
itervar controller 0
itervar headway 0.3
itervar leaderHeadway 1.2
itervar leaderSpeed 100
itervar nCars 8
itervar nLanes 1
itervar packetSize 200
itervar platoonSize 8
itervar ploegH 0.5
itervar priority 4
itervar sController "\"ACC\""
config image-path ../../../veins/images
config *.manager.command "\"sumo-gui\""
config *.node[*].scenario_type "\"BrakingScenario\""
config *.node[*].scenario.leaderOscillationFrequency "0.2 Hz"
config *.node[*].scenario.brakingDeceleration "8 mpsps"
config *.node[*].scenario.startBraking "5 s"
config output-vector-file results/Braking_0_0.3_0.vec
config output-scalar-file results/Braking_0_0.3_0.sca
config cmdenv-express-mode true
config cmdenv-autoflush true
config cmdenv-status-frequency 10s
config num-rngs 6
config network Platooning
config debug-on-errors true
config print-undisposed true
config *.playgroundSizeX 65000m
config *.playgroundSizeY 25000m
config *.playgroundSizeZ 50m
config sim-time-limit "60 s"
config *.annotations.draw false
config *.obstacles.debug false
config *.world.useTorus false
config *.world.use2D false
config *.manager.updateInterval 0.01s
config *.manager.host "\"localhost\""
config *.manager.moduleType "\"org.car2x.plexe.PlatoonCar\""
config *.manager.moduleName "\"node\""
config *.manager.moduleDisplayString "\"\""
config *.manager.autoShutdown true
config *.manager.margin 25
config *.connectionManager.sendDirect true
config *.connectionManager.maxInterfDist 2600m
config *.connectionManager.drawMaxIntfDist false
config *.**.nic.mac1609_4.useServiceChannel false
config *.**.nic.mac1609_4.txPower 100mW
config *.**.nic.mac1609_4.bitrate 6Mbps
config *.**.nic.mac1609_4.useAcks true
config *.**.nic.mac1609_4.ackErrorRate 0.0
config *.**.nic.mac1609_4.frameErrorRate 0.0
config *.**.nic.phy80211p.minPowerLevel -94dBm
config *.**.nic.phy80211p.maxTXPower 100mW
config *.**.nic.phy80211p.useNoiseFloor true
config *.**.nic.phy80211p.noiseFloor -95dBm
config *.**.nic.phy80211p.decider "xmldoc(\"config.xml\")"
config *.**.nic.phy80211p.analogueModels "xmldoc(\"config.xml\")"
config *.**.nic.phy80211p.usePropagationDelay true
config *.node[*].mobility.x 0
config *.node[*].mobility.y 0
config *.node[*].mobility.z 1.895
config seed-set 0
config **.seed 0
config *.node[*].prot.rng-0 2
config *.node[*].appl.rng-0 3
config *.node[*].scenario.rng-0 4
config **.traffic.rng-0 5
config *.manager.configFile "\"./sumocfg/freeway.sumo.cfg\""
config *.manager.launchConfig "xmldoc(\"./sumocfg/freeway.launchd.xml\")"
config **.numberOfCars 8
config **.numberOfCarsPerPlatoon 8
config **.numberOfLanes 1
config *.node[*].helper_type "\"PositionHelper\""
config *.node[*].scenario.caccC1 0.5
config *.node[*].scenario.caccXi 1
config *.node[*].scenario.caccOmegaN "0.2 Hz"
config *.node[*].scenario.caccSpacing "5 m"
config *.node[*].scenario.engineTau "0.5 s"
config *.node[*].scenario.ploegH 0.5s
config *.node[*].scenario.ploegKp 0.2
config *.node[*].scenario.ploegKd 0.7
config *.node[*].scenario.useRealisticEngine false
config *.node[*].scenario.useControllerAcceleration true
config *.node[*].scenario.nLanes 1
config **.numericController 0
config **.headway 0.3s
config *.node[*].scenario.accHeadway 0.3s
config *.node[*].scenario.leaderHeadway 1.2s
config *.node[*].scenario.leaderSpeed 100kmph
config *.node[*].appl_type "\"SimplePlatooningApp\""
config *.node[*].appl.*.scalar-recording true
config *.node[*].appl.*.vector-recording true
config *.node[*].protocol_type "\"SimplePlatooningBeaconing\""
config *.node[*].prot.*.scalar-recording true
config *.node[*].prot.*.vector-recording true
config *.node[*].prot.beaconingInterval 0.1s
config *.node[*].prot.priority 4
config *.node[*].prot.packetSize 200
config **.traffic_type "\"PlatoonsTrafficManager\""
config **.traffic.platoonInsertTime "1 s"
config **.traffic.platoonInsertSpeed 100kmph
config **.traffic.nCars 8
config **.traffic.platoonSize 8
config **.traffic.nLanes 1
config **.traffic.platooningVType "\"vtypeauto\""
config **.traffic.controller "\"ACC\""
config **.traffic.platoonInsertDistance 2m
config **.traffic.platoonInsertHeadway 0.3s
config **.traffic.platoonLeaderHeadway 1.2s
config **.scalar-recording false
config **.vector-recording false

vector 0 Platooning.node[0].appl distance ETV
vector 1 Platooning.node[0].appl relativeSpeed ETV
vector 2 Platooning.node[0].appl nodeId ETV
vector 3 Platooning.node[0].appl acceleration ETV
vector 4 Platooning.node[0].appl controllerAcceleration ETV
vector 5 Platooning.node[0].appl speed ETV
vector 6 Platooning.node[0].appl posx ETV
vector 7 Platooning.node[0].appl posy ETV
vector 8 Platooning.node[1].appl distance ETV
vector 9 Platooning.node[1].appl relativeSpeed ETV
vector 10 Platooning.node[1].appl nodeId ETV
vector 11 Platooning.node[1].appl acceleration ETV
vector 12 Platooning.node[1].appl controllerAcceleration ETV
vector 13 Platooning.node[1].appl speed ETV
vector 14 Platooning.node[1].appl posx ETV
vector 15 Platooning.node[1].appl posy ETV
vector 16 Platooning.node[2].appl distance ETV
vector 17 Platooning.node[2].appl relativeSpeed ETV
vector 18 Platooning.node[2].appl nodeId ETV
vector 19 Platooning.node[2].appl acceleration ETV
vector 20 Platooning.node[2].appl controllerAcceleration ETV
vector 21 Platooning.node[2].appl speed ETV
vector 22 Platooning.node[2].appl posx ETV
vector 23 Platooning.node[2].appl posy ETV
vector 24 Platooning.node[3].appl distance ETV
vector 25 Platooning.node[3].appl relativeSpeed ETV
vector 26 Platooning.node[3].appl nodeId ETV
vector 27 Platooning.node[3].appl acceleration ETV
vector 28 Platooning.node[3].appl controllerAcceleration ETV
vector 29 Platooning.node[3].appl speed ETV
vector 30 Platooning.node[3].appl posx ETV
vector 31 Platooning.node[3].appl posy ETV
vector 32 Platooning.node[4].appl distance ETV
vector 33 Platooning.node[4].appl relativeSpeed ETV
vector 34 Platooning.node[4].appl nodeId ETV
vector 35 Platooning.node[4].appl acceleration ETV
vector 36 Platooning.node[4].appl controllerAcceleration ETV
vector 37 Platooning.node[4].appl speed ETV
vector 38 Platooning.node[4].appl posx ETV
vector 39 Platooning.node[4].appl posy ETV
vector 40 Platooning.node[5].appl distance ETV
vector 41 Platooning.node[5].appl relativeSpeed ETV
vector 42 Platooning.node[5].appl nodeId ETV
vector 43 Platooning.node[5].appl acceleration ETV
vector 44 Platooning.node[5].appl controllerAcceleration ETV
vector 45 Platooning.node[5].appl speed ETV
vector 46 Platooning.node[5].appl posx ETV
vector 47 Platooning.node[5].appl posy ETV
vector 48 Platooning.node[6].appl distance ETV
vector 49 Platooning.node[6].appl relativeSpeed ETV
vector 50 Platooning.node[6].appl nodeId ETV
vector 51 Platooning.node[6].appl acceleration ETV
vector 52 Platooning.node[6].appl controllerAcceleration ETV
vector 53 Platooning.node[6].appl speed ETV
vector 54 Platooning.node[6].appl posx ETV
vector 55 Platooning.node[6].appl posy ETV
vector 56 Platooning.node[7].appl distance ETV
vector 57 Platooning.node[7].appl relativeSpeed ETV
vector 58 Platooning.node[7].appl nodeId ETV
vector 59 Platooning.node[7].appl acceleration ETV
vector 60 Platooning.node[7].appl controllerAcceleration ETV
vector 61 Platooning.node[7].appl speed ETV
vector 62 Platooning.node[7].appl posx ETV
vector 63 Platooning.node[7].appl posy ETV
vector 64 Platooning.node[3].prot frontDelay ETV
vector 65 Platooning.node[3].prot frontDelayId ETV
vector 66 Platooning.node[2].prot frontDelay ETV
vector 67 Platooning.node[2].prot frontDelayId ETV
vector 68 Platooning.node[7].prot frontDelay ETV
vector 69 Platooning.node[7].prot frontDelayId ETV
vector 70 Platooning.node[1].prot leaderDelay ETV
vector 71 Platooning.node[1].prot leaderDelayId ETV
vector 72 Platooning.node[1].prot frontDelay ETV
vector 73 Platooning.node[1].prot frontDelayId ETV
vector 74 Platooning.node[2].prot leaderDelay ETV
vector 75 Platooning.node[2].prot leaderDelayId ETV
vector 76 Platooning.node[3].prot leaderDelay ETV
vector 77 Platooning.node[3].prot leaderDelayId ETV
vector 78 Platooning.node[4].prot leaderDelay ETV
vector 79 Platooning.node[4].prot leaderDelayId ETV
vector 80 Platooning.node[5].prot leaderDelay ETV
vector 81 Platooning.node[5].prot leaderDelayId ETV
vector 82 Platooning.node[6].prot leaderDelay ETV
vector 83 Platooning.node[6].prot leaderDelayId ETV
vector 84 Platooning.node[7].prot leaderDelay ETV
vector 85 Platooning.node[7].prot leaderDelayId ETV
vector 86 Platooning.node[5].prot frontDelay ETV
vector 87 Platooning.node[5].prot frontDelayId ETV
vector 88 Platooning.node[4].prot frontDelay ETV
vector 89 Platooning.node[4].prot frontDelayId ETV
vector 90 Platooning.node[6].prot frontDelay ETV
vector 91 Platooning.node[6].prot frontDelayId ETV
vector 92 Platooning.node[0].prot nodeId ETV
vector 93 Platooning.node[0].prot busyTime ETV
vector 94 Platooning.node[0].prot collisions ETV
vector 95 Platooning.node[1].prot nodeId ETV
vector 96 Platooning.node[1].prot busyTime ETV
vector 97 Platooning.node[1].prot collisions ETV
vector 98 Platooning.node[2].prot nodeId ETV
vector 99 Platooning.node[2].prot busyTime ETV
vector 100 Platooning.node[2].prot collisions ETV
vector 101 Platooning.node[3].prot nodeId ETV
vector 102 Platooning.node[3].prot busyTime ETV
vector 103 Platooning.node[3].prot collisions ETV
vector 104 Platooning.node[4].prot nodeId ETV
vector 105 Platooning.node[4].prot busyTime ETV
vector 106 Platooning.node[4].prot collisions ETV
vector 107 Platooning.node[5].prot nodeId ETV
vector 108 Platooning.node[5].prot busyTime ETV
vector 109 Platooning.node[5].prot collisions ETV
vector 110 Platooning.node[6].prot nodeId ETV
vector 111 Platooning.node[6].prot busyTime ETV
vector 112 Platooning.node[6].prot collisions ETV
vector 113 Platooning.node[7].prot nodeId ETV
vector 114 Platooning.node[7].prot busyTime ETV
vector 115 Platooning.node[7].prot collisions ETV
0	113	1.11	-1
0	659	1.21	-1
0	1205	1.31	-1
0	1751	1.41	-1
0	2297	1.51	-1
0	2843	1.61	-1
0	3389	1.71	-1
0	3935	1.81	-1
0	4481	1.91	-1
0	5035	2.01	-1
0	5581	2.11	-1
0	6127	2.21	-1
0	6673	2.31	-1
0	7219	2.41	-1
0	7765	2.51	-1
0	8311	2.61	-1
0	8857	2.71	-1
0	9403	2.81	-1
0	9949	2.91	-1
0	10503	3.01	-1
0	11049	3.11	-1
0	11595	3.21	-1
0	12141	3.31	-1
0	12687	3.41	-1
0	13233	3.51	-1
0	13779	3.61	-1
0	14325	3.71	-1
0	14871	3.81	-1
0	15417	3.91	-1
0	15971	4.01	-1
0	16517	4.11	-1
0	17063	4.21	-1
0	17609	4.31	-1
0	18155	4.41	-1
0	18701	4.51	-1
0	19247	4.61	-1
0	19793	4.71	-1
0	20339	4.81	-1
0	20885	4.91	-1
0	21440	5.01	-1
0	21986	5.11	-1
0	22532	5.21	-1
0	23078	5.31	-1
0	23624	5.41	-1
0	24170	5.51	-1
0	24716	5.61	-1
0	25262	5.71	-1
0	25808	5.81	-1
0	26354	5.91	-1
0	26908	6.01	-1
0	27454	6.11	-1
0	28000	6.21	-1
0	28546	6.31	-1
0	29092	6.41	-1
0	29638	6.51	-1
0	30184	6.61	-1
0	30730	6.71	-1
0	31276	6.81	-1
0	31822	6.91	-1
0	32376	7.01	-1
0	32922	7.11	-1
0	33468	7.21	-1
0	34014	7.31	-1
0	34560	7.41	-1
0	35106	7.51	-1
0	35652	7.61	-1
0	36198	7.71	-1
0	36744	7.81	-1
0	37290	7.91	-1
0	37844	8.01	-1
0	38390	8.11	-1
0	38936	8.21	-1
0	39482	8.31	-1
0	40028	8.41	-1
0	40574	8.51	-1
0	41120	8.61	-1
0	41666	8.71	-1
0	42212	8.81	-1
0	42758	8.91	-1
0	43312	9.01	-1
0	43858	9.11	-1
0	44404	9.21	-1
0	44950	9.31	-1
0	45496	9.41	-1
0	46042	9.51	-1
1	113	1.11	0
1	659	1.21	0
1	1205	1.31	0
1	1751	1.41	0
1	2297	1.51	0
1	2843	1.61	0
1	3389	1.71	0
1	3935	1.81	0
1	4481	1.91	0
1	5035	2.01	0
1	5581	2.11	0
1	6127	2.21	0
1	6673	2.31	0
1	7219	2.41	0
1	7765	2.51	0
1	8311	2.61	0
1	8857	2.71	0
1	9403	2.81	0
1	9949	2.91	0
1	10503	3.01	0
1	11049	3.11	0
1	11595	3.21	0
1	12141	3.31	0
1	12687	3.41	0
1	13233	3.51	0
1	13779	3.61	0
1	14325	3.71	0
1	14871	3.81	0
1	15417	3.91	0
1	15971	4.01	0
1	16517	4.11	0
1	17063	4.21	0
1	17609	4.31	0
1	18155	4.41	0
1	18701	4.51	0
1	19247	4.61	0
1	19793	4.71	0
1	20339	4.81	0
1	20885	4.91	0
1	21440	5.01	0
1	21986	5.11	0
1	22532	5.21	0
1	23078	5.31	0
1	23624	5.41	0
1	24170	5.51	0
1	24716	5.61	0
1	25262	5.71	0
1	25808	5.81	0
1	26354	5.91	0
1	26908	6.01	0
1	27454	6.11	0
1	28000	6.21	0
1	28546	6.31	0
1	29092	6.41	0
1	29638	6.51	0
1	30184	6.61	0
1	30730	6.71	0
1	31276	6.81	0
1	31822	6.91	0
1	32376	7.01	0
1	32922	7.11	0
1	33468	7.21	0
1	34014	7.31	0
1	34560	7.41	0
1	35106	7.51	0
1	35652	7.61	0
1	36198	7.71	0
1	36744	7.81	0
1	37290	7.91	0
1	37844	8.01	0
1	38390	8.11	0
1	38936	8.21	0
1	39482	8.31	0
1	40028	8.41	0
1	40574	8.51	0
1	41120	8.61	0
1	41666	8.71	0
1	42212	8.81	0
1	42758	8.91	0
1	43312	9.01	0
1	43858	9.11	0
1	44404	9.21	0
1	44950	9.31	0
1	45496	9.41	0
1	46042	9.51	0
2	113	1.11	0
2	659	1.21	0
2	1205	1.31	0
2	1751	1.41	0
2	2297	1.51	0
2	2843	1.61	0
2	3389	1.71	0
2	3935	1.81	0
2	4481	1.91	0
2	5035	2.01	0
2	5581	2.11	0
2	6127	2.21	0
2	6673	2.31	0
2	7219	2.41	0
2	7765	2.51	0
2	8311	2.61	0
2	8857	2.71	0
2	9403	2.81	0
2	9949	2.91	0
2	10503	3.01	0
2	11049	3.11	0
2	11595	3.21	0
2	12141	3.31	0
2	12687	3.41	0
2	13233	3.51	0
2	13779	3.61	0
2	14325	3.71	0
2	14871	3.81	0
2	15417	3.91	0
2	15971	4.01	0
2	16517	4.11	0
2	17063	4.21	0
2	17609	4.31	0
2	18155	4.41	0
2	18701	4.51	0
2	19247	4.61	0
2	19793	4.71	0
2	20339	4.81	0
2	20885	4.91	0
2	21440	5.01	0
2	21986	5.11	0
2	22532	5.21	0
2	23078	5.31	0
2	23624	5.41	0
2	24170	5.51	0
2	24716	5.61	0
2	25262	5.71	0
2	25808	5.81	0
2	26354	5.91	0
2	26908	6.01	0
2	27454	6.11	0
2	28000	6.21	0
2	28546	6.31	0
2	29092	6.41	0
2	29638	6.51	0
2	30184	6.61	0
2	30730	6.71	0
2	31276	6.81	0
2	31822	6.91	0
2	32376	7.01	0
2	32922	7.11	0
2	33468	7.21	0
2	34014	7.31	0
2	34560	7.41	0
2	35106	7.51	0
2	35652	7.61	0
2	36198	7.71	0
2	36744	7.81	0
2	37290	7.91	0
2	37844	8.01	0
2	38390	8.11	0
2	38936	8.21	0
2	39482	8.31	0
2	40028	8.41	0
2	40574	8.51	0
2	41120	8.61	0
2	41666	8.71	0
2	42212	8.81	0
2	42758	8.91	0
2	43312	9.01	0
2	43858	9.11	0
2	44404	9.21	0
2	44950	9.31	0
2	45496	9.41	0
2	46042	9.51	0
3	113	1.11	-0.000358191
3	659	1.21	-0.000681704
3	1205	1.31	-0.00093487
3	1751	1.41	-0.00112579
3	2297	1.51	-0.00126221
3	2843	1.61	-0.00135149
3	3389	1.71	-0.00140049
3	3935	1.81	-0.00141557
3	4481	1.91	-0.00140255
3	5035	2.01	-0.00136671
3	5581	2.11	-0.0013128
3	6127	2.21	-0.00124502
3	6673	2.31	-0.0011671
3	7219	2.41	-0.00108223
3	7765	2.51	-0.000993208
3	8311	2.61	-0.000902362
3	8857	2.71	-0.000811651
3	9403	2.81	-0.000722679
3	9949	2.91	-0.000636729
3	10503	3.01	-0.0005548
3	11049	3.11	-0.000477639
3	11595	3.21	-0.000405773
3	12141	3.31	-0.00033954
3	12687	3.41	-0.000279116
3	13233	3.51	-0.000224541
3	13779	3.61	-0.000175743
3	14325	3.71	-0.00013256
3	14871	3.81	-9.47571e-05
3	15417	3.91	-6.2046e-05
3	15971	4.01	-3.40986e-05
3	16517	4.11	-1.05605e-05
3	17063	4.21	8.93844e-06
3	17609	4.31	2.4774e-05
3	18155	4.41	3.73203e-05
3	18701	4.51	4.69433e-05
3	19247	4.61	5.39956e-05
3	19793	4.71	5.88124e-05
3	20339	4.81	6.1709e-05
3	20885	4.91	6.29785e-05
3	21440	5.01	-0.156801
3	21986	5.11	-1.56585
3	22532	5.21	-2.72175
3	23078	5.31	-3.67
3	23624	5.41	-4.44789
3	24170	5.51	-5.08603
3	24716	5.61	-5.60953
3	25262	5.71	-6.03898
3	25808	5.81	-6.39128
3	26354	5.91	-6.68029
3	26908	6.01	-6.91738
3	27454	6.11	-7.11187
3	28000	6.21	-7.27143
3	28546	6.31	-7.40232
3	29092	6.41	-7.50969
3	29638	6.51	-7.59778
3	30184	6.61	-7.67004
3	30730	6.71	-7.72932
3	31276	6.81	-7.77794
3	31822	6.91	-7.81784
3	32376	7.01	-7.85056
3	32922	7.11	-7.87741
3	33468	7.21	-7.89943
3	34014	7.31	-7.9175
3	34560	7.41	-7.93232
3	35106	7.51	-7.94448
3	35652	7.61	-7.95445
3	36198	7.71	-7.96264
3	36744	7.81	-7.96935
3	37290	7.91	-7.97486
3	37844	8.01	-7.97937
3	38390	8.11	-7.98308
3	38936	8.21	-7.98612
3	39482	8.31	-7.98861
3	40028	8.41	-7.99066
3	40574	8.51	-7.99234
3	41120	8.61	-7.99371
3	41666	8.71	-7.99484
3	42212	8.81	-7.99577
3	42758	8.91	-7.99653
3	43312	9.01	0
3	43858	9.11	0
3	44404	9.21	0
3	44950	9.31	0
3	45496	9.41	0
3	46042	9.51	0
4	113	1.11	-0.00218518
4	659	1.21	-0.00213419
4	1205	1.31	-0.00205408
4	1751	1.41	-0.00195152
4	2297	1.51	-0.00183238
4	2843	1.61	-0.00170178
4	3389	1.71	-0.00156412
4	3935	1.81	-0.00142314
4	4481	1.91	-0.00128196
4	5035	2.01	-0.00114315
4	5581	2.11	-0.00100877
4	6127	2.21	-0.000880447
4	6673	2.31	-0.000759381
4	7219	2.41	-0.000646445
4	7765	2.51	-0.000542204
4	8311	2.61	-0.000446965
4	8857	2.71	-0.000360819
4	9403	2.81	-0.000283678
4	9949	2.91	-0.000215307
4	10503	3.01	-0.000155357
4	11049	3.11	-0.000103391
4	11595	3.21	-5.89069e-05
4	12141	3.31	-2.13575e-05
4	12687	3.41	9.82919e-06
4	13233	3.51	3.52368e-05
4	13779	3.61	5.54479e-05
4	14325	3.71	7.10335e-05
4	14871	3.81	8.25451e-05
4	15417	3.91	9.05081e-05
4	15971	4.01	9.54172e-05
4	16517	4.11	9.7733e-05
4	17063	4.21	9.78798e-05
4	17609	4.31	9.62447e-05
4	18155	4.41	9.31771e-05
4	18701	4.51	8.89894e-05
4	19247	4.61	8.39579e-05
4	19793	4.71	7.83245e-05
4	20339	4.81	7.22983e-05
4	20885	4.91	6.6058e-05
4	21440	5.01	-8
4	21986	5.11	-8
4	22532	5.21	-8
4	23078	5.31	-8
4	23624	5.41	-8
4	24170	5.51	-8
4	24716	5.61	-8
4	25262	5.71	-8
4	25808	5.81	-8
4	26354	5.91	-8
4	26908	6.01	-8
4	27454	6.11	-8
4	28000	6.21	-8
4	28546	6.31	-8
4	29092	6.41	-8
4	29638	6.51	-8
4	30184	6.61	-8
4	30730	6.71	-8
4	31276	6.81	-8
4	31822	6.91	-8
4	32376	7.01	-8
4	32922	7.11	-8
4	33468	7.21	-8
4	34014	7.31	-8
4	34560	7.41	-8
4	35106	7.51	-8
4	35652	7.61	-8
4	36198	7.71	-8
4	36744	7.81	-8
4	37290	7.91	-8
4	37844	8.01	-8
4	38390	8.11	-8
4	38936	8.21	-8
4	39482	8.31	-8
4	40028	8.41	-8
4	40574	8.51	-8
4	41120	8.61	-8
4	41666	8.71	-8
4	42212	8.81	-8
4	42758	8.91	-8
4	43312	9.01	0
4	43858	9.11	0
4	44404	9.21	0
4	44950	9.31	0
4	45496	9.41	0
4	46042	9.51	0
5	113	1.11	27.78
5	659	1.21	27.7799
5	1205	1.31	27.7798
5	1751	1.41	27.7797
5	2297	1.51	27.7796
5	2843	1.61	27.7795
5	3389	1.71	27.7794
5	3935	1.81	27.7792
5	4481	1.91	27.7791
5	5035	2.01	27.7789
5	5581	2.11	27.7788
5	6127	2.21	27.7787
5	6673	2.31	27.7785
5	7219	2.41	27.7784
5	7765	2.51	27.7783
5	8311	2.61	27.7782
5	8857	2.71	27.7782
5	9403	2.81	27.7781
5	9949	2.91	27.778
5	10503	3.01	27.7779
5	11049	3.11	27.7779
5	11595	3.21	27.7779
5	12141	3.31	27.7778
5	12687	3.41	27.7778
5	13233	3.51	27.7778
5	13779	3.61	27.7777
5	14325	3.71	27.7777
5	14871	3.81	27.7777
5	15417	3.91	27.7777
5	15971	4.01	27.7777
5	16517	4.11	27.7777
5	17063	4.21	27.7777
5	17609	4.31	27.7777
5	18155	4.41	27.7777
5	18701	4.51	27.7777
5	19247	4.61	27.7777
5	19793	4.71	27.7777
5	20339	4.81	27.7777
5	20885	4.91	27.7777
5	21440	5.01	27.7762
5	21986	5.11	27.6807
5	22532	5.21	27.4586
5	23078	5.31	27.1328
5	23624	5.41	26.7217
5	24170	5.51	26.2408
5	24716	5.61	25.7025
5	25262	5.71	25.1173
5	25808	5.81	24.4934
5	26354	5.91	23.8379
5	26908	6.01	23.1565
5	27454	6.11	22.4537
5	28000	6.21	21.7335
5	28546	6.31	20.9989
5	29092	6.41	20.2526
5	29638	6.51	19.4967
5	30184	6.61	18.7328
5	30730	6.71	17.9624
5	31276	6.81	17.1867
5	31822	6.91	16.4067
5	32376	7.01	15.6231
5	32922	7.11	14.8365
5	33468	7.21	14.0475
5	34014	7.31	13.2565
5	34560	7.41	12.4639
5	35106	7.51	11.67
5	35652	7.61	10.875
5	36198	7.71	10.0791
5	36744	7.81	9.28245
5	37290	7.91	8.4852
5	37844	8.01	7.68746
5	38390	8.11	6.88931
5	38936	8.21	6.09083
5	39482	8.31	5.29208
5	40028	8.41	4.4931
5	40574	8.51	3.69394
5	41120	8.61	2.89463
5	41666	8.71	2.09519
5	42212	8.81	1.29566
5	42758	8.91	0.496036
5	43312	9.01	0
5	43858	9.11	0
5	44404	9.21	0
5	44950	9.31	0
5	45496	9.41	0
5	46042	9.51	0
6	113	1.11	111.27
6	659	1.21	114.048
6	1205	1.31	116.826
6	1751	1.41	119.604
6	2297	1.51	122.382
6	2843	1.61	125.16
6	3389	1.71	127.938
6	3935	1.81	130.716
6	4481	1.91	133.494
6	5035	2.01	136.272
6	5581	2.11	139.05
6	6127	2.21	141.828
6	6673	2.31	144.605
6	7219	2.41	147.383
6	7765	2.51	150.161
6	8311	2.61	152.939
6	8857	2.71	155.717
6	9403	2.81	158.495
6	9949	2.91	161.272
6	10503	3.01	164.05
6	11049	3.11	166.828
6	11595	3.21	169.606
6	12141	3.31	172.384
6	12687	3.41	175.161
6	13233	3.51	177.939
6	13779	3.61	180.717
6	14325	3.71	183.495
6	14871	3.81	186.272
6	15417	3.91	189.05
6	15971	4.01	191.828
6	16517	4.11	194.606
6	17063	4.21	197.383
6	17609	4.31	200.161
6	18155	4.41	202.939
6	18701	4.51	205.717
6	19247	4.61	208.495
6	19793	4.71	211.272
6	20339	4.81	214.05
6	20885	4.91	216.828
6	21440	5.01	219.606
6	21986	5.11	222.38
6	22532	5.21	225.138
6	23078	5.31	227.868
6	23624	5.41	230.561
6	24170	5.51	233.21
6	24716	5.61	235.807
6	25262	5.71	238.349
6	25808	5.81	240.83
6	26354	5.91	243.246
6	26908	6.01	245.596
6	27454	6.11	247.877
6	28000	6.21	250.087
6	28546	6.31	252.223
6	29092	6.41	254.286
6	29638	6.51	256.273
6	30184	6.61	258.185
6	30730	6.71	260.02
6	31276	6.81	261.777
6	31822	6.91	263.457
6	32376	7.01	265.058
6	32922	7.11	266.581
6	33468	7.21	268.026
6	34014	7.31	269.391
6	34560	7.41	270.677
6	35106	7.51	271.884
6	35652	7.61	273.011
6	36198	7.71	274.059
6	36744	7.81	275.027
6	37290	7.91	275.915
6	37844	8.01	276.724
6	38390	8.11	277.453
6	38936	8.21	278.102
6	39482	8.31	278.671
6	40028	8.41	279.16
6	40574	8.51	279.569
6	41120	8.61	279.899
6	41666	8.71	280.148
6	42212	8.81	280.318
6	42758	8.91	280.407
6	43312	9.01	280.423
6	43858	9.11	280.423
6	44404	9.21	280.423
6	44950	9.31	280.423
6	45496	9.41	280.423
6	46042	9.51	280.423
7	113	1.11	242.45
7	659	1.21	242.45
7	1205	1.31	242.45
7	1751	1.41	242.45
7	2297	1.51	242.45
7	2843	1.61	242.45
7	3389	1.71	242.45
7	3935	1.81	242.45
7	4481	1.91	242.45
7	5035	2.01	242.45
7	5581	2.11	242.45
7	6127	2.21	242.45
7	6673	2.31	242.45
7	7219	2.41	242.45
7	7765	2.51	242.45
7	8311	2.61	242.45
7	8857	2.71	242.45
7	9403	2.81	242.45
7	9949	2.91	242.45
7	10503	3.01	242.45
7	11049	3.11	242.45
7	11595	3.21	242.45
7	12141	3.31	242.45
7	12687	3.41	242.45
7	13233	3.51	242.45
7	13779	3.61	242.45
7	14325	3.71	242.45
7	14871	3.81	242.45
7	15417	3.91	242.45
7	15971	4.01	242.45
7	16517	4.11	242.45
7	17063	4.21	242.45
7	17609	4.31	242.45
7	18155	4.41	242.45
7	18701	4.51	242.45
7	19247	4.61	242.45
7	19793	4.71	242.45
7	20339	4.81	242.45
7	20885	4.91	242.45
7	21440	5.01	242.45
7	21986	5.11	242.45
7	22532	5.21	242.45
7	23078	5.31	242.45
7	23624	5.41	242.45
7	24170	5.51	242.45
7	24716	5.61	242.45
7	25262	5.71	242.45
7	25808	5.81	242.45
7	26354	5.91	242.45
7	26908	6.01	242.45
7	27454	6.11	242.45
7	28000	6.21	242.45
7	28546	6.31	242.45
7	29092	6.41	242.45
7	29638	6.51	242.45
7	30184	6.61	242.45
7	30730	6.71	242.45
7	31276	6.81	242.45
7	31822	6.91	242.45
7	32376	7.01	242.45
7	32922	7.11	242.45
7	33468	7.21	242.45
7	34014	7.31	242.45
7	34560	7.41	242.45
7	35106	7.51	242.45
7	35652	7.61	242.45
7	36198	7.71	242.45
7	36744	7.81	242.45
7	37290	7.91	242.45
7	37844	8.01	242.45
7	38390	8.11	242.45
7	38936	8.21	242.45
7	39482	8.31	242.45
7	40028	8.41	242.45
7	40574	8.51	242.45
7	41120	8.61	242.45
7	41666	8.71	242.45
7	42212	8.81	242.45
7	42758	8.91	242.45
7	43312	9.01	242.45
7	43858	9.11	242.45
7	44404	9.21	242.45
7	44950	9.31	242.45
7	45496	9.41	242.45
7	46042	9.51	242.45
8	114	1.11	10.33
8	660	1.21	10.33
8	1206	1.31	10.33
8	1752	1.41	10.33
8	2298	1.51	10.33
8	2844	1.61	10.33
8	3390	1.71	10.3299
8	3936	1.81	10.3299
8	4482	1.91	10.3299
8	5036	2.01	10.3299
8	5582	2.11	10.3299
8	6128	2.21	10.3299
8	6674	2.31	10.3299
8	7220	2.41	10.3298
8	7766	2.51	10.3298
8	8312	2.61	10.3298
8	8858	2.71	10.3299
8	9404	2.81	10.3299
8	9950	2.91	10.3299
8	10504	3.01	10.3299
8	11050	3.11	10.3299
8	11596	3.21	10.33
8	12142	3.31	10.33
8	12688	3.41	10.33
8	13234	3.51	10.3301
8	13780	3.61	10.3301
8	14326	3.71	10.3302
8	14872	3.81	10.3302
8	15418	3.91	10.3302
8	15972	4.01	10.3303
8	16518	4.11	10.3303
8	17064	4.21	10.3304
8	17610	4.31	10.3304
8	18156	4.41	10.3304
8	18702	4.51	10.3305
8	19248	4.61	10.3305
8	19794	4.71	10.3305
8	20340	4.81	10.3305
8	20886	4.91	10.3306
8	21441	5.01	10.3306
8	21987	5.11	10.3269
8	22533	5.21	10.3073
8	23079	5.31	10.2618
8	23625	5.41	10.1833
8	24171	5.51	10.0682
8	24717	5.61	9.91577
8	25263	5.71	9.72763
8	25809	5.81	9.50734
8	26355	5.91	9.25979
8	26909	6.01	8.99067
8	27455	6.11	8.70605
8	28001	6.21	8.41186
8	28547	6.31	8.11363
8	29093	6.41	7.81615
8	29639	6.51	7.5234
8	30185	6.61	7.23835
8	30731	6.71	6.96303
8	31277	6.81	6.69852
8	31823	6.91	6.44508
8	32377	7.01	6.20225
8	32923	7.11	5.96901
8	33469	7.21	5.74395
8	34015	7.31	5.52538
8	34561	7.41	5.31153
8	35107	7.51	5.10065
8	35653	7.61	4.89108
8	36199	7.71	4.68138
8	36745	7.81	4.47035
8	37291	7.91	4.25709
8	37845	8.01	4.04096
8	38391	8.11	3.82161
8	38937	8.21	3.59893
8	39483	8.31	3.37302
8	40029	8.41	3.14416
8	40575	8.51	2.91275
8	41121	8.61	2.67928
8	41667	8.71	2.44424
8	42213	8.81	2.20817
8	42759	8.91	1.97154
8	43313	9.01	1.7406
8	43859	9.11	1.57367
8	44405	9.21	1.48234
8	44951	9.31	1.45841
8	45497	9.41	1.45841
8	46043	9.51	1.45841
9	114	1.11	-7.20115e-06
9	660	1.21	-2.77941e-05
9	1206	1.31	-5.72289e-05
9	1752	1.41	-9.07596e-05
9	2298	1.51	-0.000123872
9	2844	1.61	-0.000152613
9	3390	1.71	-0.00017381
9	3936	1.81	-0.000185205
9	4482	1.91	-0.000185486
9	5036	2.01	-0.000174259
9	5582	2.11	-0.000151951
9	6128	2.21	-0.000119674
9	6674	2.31	-7.90706e-05
9	7220	2.41	-3.2137e-05
9	7766	2.51	1.89428e-05
9	8312	2.61	7.19532e-05
9	8858	2.71	0.000124783
9	9404	2.81	0.000175532
9	9950	2.91	0.000222598
9	10504	3.01	0.000264718
9	11050	3.11	0.000301002
9	11596	3.21	0.000330925
9	12142	3.31	0.00035431
9	12688	3.41	0.000371284
9	13234	3.51	0.000382233
9	13780	3.61	0.000387741
9	14326	3.71	0.000388537
9	14872	3.81	0.000385429
9	15418	3.91	0.000379259
9	15972	4.01	0.000370849
9	16518	4.11	0.000360969
9	17064	4.21	0.000350304
9	17610	4.31	0.000339438
9	18156	4.41	0.000328839
9	18702	4.51	0.000318858
9	19248	4.61	0.000309736
9	19794	4.71	0.000301608
9	20340	4.81	0.000294522
9	20886	4.91	0.00028845
9	21441	5.01	-0.00128533
9	21987	5.11	-0.0960909
9	22533	5.21	-0.311038
9	23079	5.31	-0.611631
9	23625	5.41	-0.964353
9	24171	5.51	-1.33847
9	24717	5.61	-1.70735
9	25263	5.71	-2.04937
9	25809	5.81	-2.34829
9	26355	5.91	-2.59334
9	26909	6.01	-2.77885
9	27455	6.11	-2.90375
9	28001	6.21	-2.97085
9	28547	6.31	-2.98593
9	29093	6.41	-2.95697
9	29639	6.51	-2.89321
9	30185	6.61	-2.80443
9	30731	6.71	-2.70023
9	31277	6.81	-2.58952
9	31823	6.91	-2.48006
9	32377	7.01	-2.37824
9	32923	7.11	-2.28887
9	33469	7.21	-2.21522
9	34015	7.31	-2.15906
9	34561	7.41	-2.12079
9	35107	7.51	-2.09969
9	35653	7.61	-2.09413
9	36199	7.71	-2.10184
9	36745	7.81	-2.12012
9	37291	7.91	-2.14613
9	37845	8.01	-2.17703
9	38391	8.11	-2.21019
9	38937	8.21	-2.24329
9	39483	8.31	-2.27441
9	40029	8.41	-2.30207
9	40575	8.51	-2.32527
9	41121	8.61	-2.34343
9	41667	8.71	-2.35639
9	42213	8.81	-2.36431
9	42759	8.91	-2.36763
9	43313	9.01	-2.0638
9	43859	9.11	-1.28127
9	44405	9.21	-0.558225
9	44951	9.31	0
9	45497	9.41	0
9	46043	9.51	0
10	114	1.11	1
10	660	1.21	1
10	1206	1.31	1
10	1752	1.41	1
10	2298	1.51	1
10	2844	1.61	1
10	3390	1.71	1
10	3936	1.81	1
10	4482	1.91	1
10	5036	2.01	1
10	5582	2.11	1
10	6128	2.21	1
10	6674	2.31	1
10	7220	2.41	1
10	7766	2.51	1
10	8312	2.61	1
10	8858	2.71	1
10	9404	2.81	1
10	9950	2.91	1
10	10504	3.01	1
10	11050	3.11	1
10	11596	3.21	1
10	12142	3.31	1
10	12688	3.41	1
10	13234	3.51	1
10	13780	3.61	1
10	14326	3.71	1
10	14872	3.81	1
10	15418	3.91	1
10	15972	4.01	1
10	16518	4.11	1
10	17064	4.21	1
10	17610	4.31	1
10	18156	4.41	1
10	18702	4.51	1
10	19248	4.61	1
10	19794	4.71	1
10	20340	4.81	1
10	20886	4.91	1
10	21441	5.01	1
10	21987	5.11	1
10	22533	5.21	1
10	23079	5.31	1
10	23625	5.41	1
10	24171	5.51	1
10	24717	5.61	1
10	25263	5.71	1
10	25809	5.81	1
10	26355	5.91	1
10	26909	6.01	1
10	27455	6.11	1
10	28001	6.21	1
10	28547	6.31	1
10	29093	6.41	1
10	29639	6.51	1
10	30185	6.61	1
10	30731	6.71	1
10	31277	6.81	1
10	31823	6.91	1
10	32377	7.01	1
10	32923	7.11	1
10	33469	7.21	1
10	34015	7.31	1
10	34561	7.41	1
10	35107	7.51	1
10	35653	7.61	1
10	36199	7.71	1
10	36745	7.81	1
10	37291	7.91	1
10	37845	8.01	1
10	38391	8.11	1
10	38937	8.21	1
10	39483	8.31	1
10	40029	8.41	1
10	40575	8.51	1
10	41121	8.61	1
10	41667	8.71	1
10	42213	8.81	1
10	42759	8.91	1
10	43313	9.01	1
10	43859	9.11	1
10	44405	9.21	1
10	44951	9.31	1
10	45497	9.41	1
10	46043	9.51	1
11	114	1.11	-0.000218844
11	660	1.21	-0.000428167
11	1206	1.31	-0.000614317
11	1752	1.41	-0.00078526
11	2298	1.51	-0.000944793
11	2844	1.61	-0.00109348
11	3390	1.71	-0.00122964
11	3936	1.81	-0.00135021
11	4482	1.91	-0.00145155
11	5036	2.01	-0.00153014
11	5582	2.11	-0.00158305
11	6128	2.21	-0.0016083
11	6674	2.31	-0.00160511
11	7220	2.41	-0.00157391
11	7766	2.51	-0.00151631
11	8312	2.61	-0.001435
11	8858	2.71	-0.00133351
11	9404	2.81	-0.00121599
11	9950	2.91	-0.00108692
11	10504	3.01	-0.000950919
11	11050	3.11	-0.000812441
11	11596	3.21	-0.000675624
11	12142	3.31	-0.000544108
11	12688	3.41	-0.00042093
11	13234	3.51	-0.000308451
11	13780	3.61	-0.000208339
11	14326	3.71	-0.000121575
11	14872	3.81	-4.85105e-05
11	15418	3.91	1.10643e-05
11	15972	4.01	5.78279e-05
11	16518	4.11	9.28256e-05
11	17064	4.21	0.000117366
11	17610	4.31	0.000132918
11	18156	4.41	0.00014102
11	18702	4.51	0.000143197
11	19248	4.61	0.000140891
11	19794	4.71	0.000135415
11	20340	4.81	0.000127911
11	20886	4.91	0.000119335
11	21441	5.01	0.000110443
11	21987	5.11	-0.0205302
11	22533	5.21	-0.130049
11	23079	5.31	-0.375837
11	23625	5.41	-0.776563
11	24171	5.51	-1.32821
11	24717	5.61	-2.01006
11	25263	5.71	-2.79024
11	25809	5.81	-3.63085
11	26355	5.91	-4.49225
11	26909	6.01	-5.33653
11	27455	6.11	-6.13022
11	28001	6.21	-6.84608
11	28547	6.31	-7.46409
11	29093	6.41	-7.97181
11	29639	6.51	-8.36417
11	30185	6.61	-8.64269
11	30731	6.71	-8.81452
11	31277	6.81	-8.89121
11	31823	6.91	-8.88739
11	32377	7.01	-8.81948
11	32923	7.11	-8.70451
11	33469	7.21	-8.55904
11	34015	7.31	-8.39835
11	34561	7.41	-8.23576
11	35107	7.51	-8.08225
11	35653	7.61	-7.94618
11	36199	7.71	-7.83334
11	36745	7.81	-7.74699
11	37291	7.91	-7.68818
11	37845	8.01	-7.65605
11	38391	8.11	-7.64822
11	38937	8.21	-7.66124
11	39483	8.31	-7.69092
11	40029	8.41	-7.7328
11	40575	8.51	-7.7824
11	41121	8.61	-7.83552
11	41667	8.71	-7.88847
11	42213	8.81	-7.93818
11	42759	8.91	-7.98228
11	43313	9.01	-7.9913
11	43859	9.11	-7.62209
11	44405	9.21	-6.85951
11	44951	9.31	0
11	45497	9.41	0
11	46043	9.51	0
12	114	1.11	-0.00135185
12	660	1.21	-0.00141402
12	1206	1.31	-0.00150607
12	1752	1.41	-0.0016126
12	2298	1.51	-0.00171864
12	2844	1.61	-0.00181082
12	3390	1.71	-0.00187822
12	3936	1.81	-0.00191283
12	4482	1.91	-0.00190982
12	5036	2.01	-0.00186738
12	5582	2.11	-0.00178656
12	6128	2.21	-0.00167076
12	6674	2.31	-0.00152528
12	7220	2.41	-0.00135671
12	7766	2.51	-0.00117239
12	8312	2.61	-0.000979858
12	8858	2.71	-0.000786386
12	9404	2.81	-0.000598607
12	9950	2.91	-0.00042221
12	10504	3.01	-0.000261749
12	11050	3.11	-0.000120549
12	11596	3.21	-6.83466e-07
12	12142	3.31	9.69598e-05
12	12688	3.41	0.000172563
12	13234	3.51	0.000227219
12	13780	3.61	0.000262743
12	14326	3.71	0.000281476
12	14872	3.81	0.000286087
12	15418	3.91	0.000279392
12	15972	4.01	0.00026419
12	16518	4.11	0.000243126
12	17064	4.21	0.00021859
12	17610	4.31	0.000192641
12	18156	4.41	0.000166962
12	18702	4.51	0.000142848
12	19248	4.61	0.000121208
12	19794	4.71	0.000102601
12	20340	4.81	8.72684e-05
12	20886	4.91	7.51935e-05
12	21441	5.01	6.61535e-05
12	21987	5.11	-0.270579
12	22533	5.21	-0.957391
12	23079	5.31	-1.94787
12	23625	5.41	-3.1306
12	24171	5.51	-4.40175
12	24717	5.61	-5.66996
12	25263	5.71	-6.85973
12	25809	5.81	-7.91321
12	26355	5.91	-8.79061
12	26909	6.01	-9.46953
12	27455	6.11	-9.94332
12	28001	6.21	-10.2187
12	28547	6.31	-10.3133
12	29093	6.41	-10.2523
12	29639	6.51	-10.0662
12	30185	6.61	-9.78741
12	30731	6.71	-9.44867
12	31277	6.81	-9.08054
12	31823	6.91	-8.71012
12	32377	7.01	-8.36002
12	32923	7.11	-8.04774
12	33469	7.21	-7.78552
12	34015	7.31	-7.58051
12	34561	7.41	-7.4352
12	35107	7.51	-7.34806
12	35653	7.61	-7.31435
12	36199	7.71	-7.32695
12	36745	7.81	-7.37715
12	37291	7.91	-7.45552
12	37845	8.01	-7.55254
12	38391	8.11	-7.65919
12	38937	8.21	-7.76744
12	39483	8.31	-7.87053
12	40029	8.41	-7.96317
12	40575	8.51	-8.04161
12	41121	8.61	-8.10358
12	41667	8.71	-8.1482
12	42213	8.81	-8.17577
12	42759	8.91	-8.18757
12	43313	9.01	-7.43954
12	43859	9.11	-4.79844
12	44405	9.21	-2.32266
12	44951	9.31	0
12	45497	9.41	0
12	46043	9.51	0
13	114	1.11	27.78
13	660	1.21	27.78
13	1206	1.31	27.7799
13	1752	1.41	27.7798
13	2298	1.51	27.7797
13	2844	1.61	27.7796
13	3390	1.71	27.7795
13	3936	1.81	27.7794
13	4482	1.91	27.7793
13	5036	2.01	27.7791
13	5582	2.11	27.7789
13	6128	2.21	27.7788
13	6674	2.31	27.7786
13	7220	2.41	27.7785
13	7766	2.51	27.7783
13	8312	2.61	27.7782
13	8858	2.71	27.778
13	9404	2.81	27.7779
13	9950	2.91	27.7778
13	10504	3.01	27.7777
13	11050	3.11	27.7776
13	11596	3.21	27.7775
13	12142	3.31	27.7775
13	12688	3.41	27.7774
13	13234	3.51	27.7774
13	13780	3.61	27.7774
13	14326	3.71	27.7773
13	14872	3.81	27.7773
13	15418	3.91	27.7773
13	15972	4.01	27.7773
13	16518	4.11	27.7773
13	17064	4.21	27.7774
13	17610	4.31	27.7774
13	18156	4.41	27.7774
13	18702	4.51	27.7774
13	19248	4.61	27.7774
13	19794	4.71	27.7774
13	20340	4.81	27.7774
13	20886	4.91	27.7774
13	21441	5.01	27.7775
13	21987	5.11	27.7768
13	22533	5.21	27.7697
13	23079	5.31	27.7444
13	23625	5.41	27.6861
13	24171	5.51	27.5793
13	24717	5.61	27.4099
13	25263	5.71	27.1666
13	25809	5.81	26.8417
13	26355	5.91	26.4313
13	26909	6.01	25.9353
13	27455	6.11	25.3575
13	28001	6.21	24.7043
13	28547	6.31	23.9849
13	29093	6.41	23.2096
13	29639	6.51	22.3899
13	30185	6.61	21.5372
13	30731	6.71	20.6627
13	31277	6.81	19.7763
13	31823	6.91	18.8868
13	32377	7.01	18.0013
13	32923	7.11	17.1253
13	33469	7.21	16.2627
13	34015	7.31	15.4156
13	34561	7.41	14.5847
13	35107	7.51	13.7697
13	35653	7.61	12.9691
13	36199	7.71	12.1809
13	36745	7.81	11.4026
13	37291	7.91	10.6313
13	37845	8.01	9.86449
13	38391	8.11	9.09951
13	38937	8.21	8.33412
13	39483	8.31	7.56649
13	40029	8.41	6.79517
13	40575	8.51	6.01921
13	41121	8.61	5.23806
13	41667	8.71	4.45158
13	42213	8.81	3.65996
13	42759	8.91	2.86367
13	43313	9.01	2.0638
13	43859	9.11	1.28127
13	44405	9.21	0.558225
13	44951	9.31	0
13	45497	9.41	0
13	46043	9.51	0
14	114	1.11	96.9402
14	660	1.21	99.7182
14	1206	1.31	102.496
14	1752	1.41	105.274
14	2298	1.51	108.052
14	2844	1.61	110.83
14	3390	1.71	113.608
14	3936	1.81	116.386
14	4482	1.91	119.164
14	5036	2.01	121.942
14	5582	2.11	124.72
14	6128	2.21	127.498
14	6674	2.31	130.276
14	7220	2.41	133.053
14	7766	2.51	135.831
14	8312	2.61	138.609
14	8858	2.71	141.387
14	9404	2.81	144.165
14	9950	2.91	146.942
14	10504	3.01	149.72
14	11050	3.11	152.498
14	11596	3.21	155.276
14	12142	3.31	158.053
14	12688	3.41	160.831
14	13234	3.51	163.609
14	13780	3.61	166.387
14	14326	3.71	169.164
14	14872	3.81	171.942
14	15418	3.91	174.72
14	15972	4.01	177.498
14	16518	4.11	180.275
14	17064	4.21	183.053
14	17610	4.31	185.831
14	18156	4.41	188.609
14	18702	4.51	191.386
14	19248	4.61	194.164
14	19794	4.71	196.942
14	20340	4.81	199.72
14	20886	4.91	202.497
14	21441	5.01	205.275
14	21987	5.11	208.053
14	22533	5.21	210.83
14	23079	5.31	213.606
14	23625	5.41	216.378
14	24171	5.51	219.142
14	24717	5.61	221.892
14	25263	5.71	224.621
14	25809	5.81	227.322
14	26355	5.91	229.987
14	26909	6.01	232.606
14	27455	6.11	235.171
14	28001	6.21	237.675
14	28547	6.31	240.11
14	29093	6.41	242.47
14	29639	6.51	244.75
14	30185	6.61	246.947
14	30731	6.71	249.057
14	31277	6.81	251.079
14	31823	6.91	253.012
14	32377	7.01	254.856
14	32923	7.11	256.612
14	33469	7.21	258.282
14	34015	7.31	259.866
14	34561	7.41	261.365
14	35107	7.51	262.783
14	35653	7.61	264.12
14	36199	7.71	265.377
14	36745	7.81	266.556
14	37291	7.91	267.658
14	37845	8.01	268.683
14	38391	8.11	269.631
14	38937	8.21	270.503
14	39483	8.31	271.298
14	40029	8.41	272.016
14	40575	8.51	272.657
14	41121	8.61	273.22
14	41667	8.71	273.704
14	42213	8.81	274.11
14	42759	8.91	274.436
14	43313	9.01	274.682
14	43859	9.11	274.849
14	44405	9.21	274.941
14	44951	9.31	274.964
14	45497	9.41	274.964
14	46043	9.51	274.964
15	114	1.11	242.45
15	660	1.21	242.45
15	1206	1.31	242.45
15	1752	1.41	242.45
15	2298	1.51	242.45
15	2844	1.61	242.45
15	3390	1.71	242.45
15	3936	1.81	242.45
15	4482	1.91	242.45
15	5036	2.01	242.45
15	5582	2.11	242.45
15	6128	2.21	242.45
15	6674	2.31	242.45
15	7220	2.41	242.45
15	7766	2.51	242.45
15	8312	2.61	242.45
15	8858	2.71	242.45
15	9404	2.81	242.45
15	9950	2.91	242.45
15	10504	3.01	242.45
15	11050	3.11	242.45
15	11596	3.21	242.45
15	12142	3.31	242.45
15	12688	3.41	242.45
15	13234	3.51	242.45
15	13780	3.61	242.45
15	14326	3.71	242.45
15	14872	3.81	242.45
15	15418	3.91	242.45
15	15972	4.01	242.45
15	16518	4.11	242.45
15	17064	4.21	242.45
15	17610	4.31	242.45
15	18156	4.41	242.45
15	18702	4.51	242.45
15	19248	4.61	242.45
15	19794	4.71	242.45
15	20340	4.81	242.45
15	20886	4.91	242.45
15	21441	5.01	242.45
15	21987	5.11	242.45
15	22533	5.21	242.45
15	23079	5.31	242.45
15	23625	5.41	242.45
15	24171	5.51	242.45
15	24717	5.61	242.45
15	25263	5.71	242.45
15	25809	5.81	242.45
15	26355	5.91	242.45
15	26909	6.01	242.45
15	27455	6.11	242.45
15	28001	6.21	242.45
15	28547	6.31	242.45
15	29093	6.41	242.45
15	29639	6.51	242.45
15	30185	6.61	242.45
15	30731	6.71	242.45
15	31277	6.81	242.45
15	31823	6.91	242.45
15	32377	7.01	242.45
15	32923	7.11	242.45
15	33469	7.21	242.45
15	34015	7.31	242.45
15	34561	7.41	242.45
15	35107	7.51	242.45
15	35653	7.61	242.45
15	36199	7.71	242.45
15	36745	7.81	242.45
15	37291	7.91	242.45
15	37845	8.01	242.45
15	38391	8.11	242.45
15	38937	8.21	242.45
15	39483	8.31	242.45
15	40029	8.41	242.45
15	40575	8.51	242.45
15	41121	8.61	242.45
15	41667	8.71	242.45
15	42213	8.81	242.45
15	42759	8.91	242.45
15	43313	9.01	242.45
15	43859	9.11	242.45
15	44405	9.21	242.45
15	44951	9.31	242.45
15	45497	9.41	242.45
15	46043	9.51	242.45
16	115	1.11	10.33
16	661	1.21	10.33
16	1207	1.31	10.33
16	1753	1.41	10.33
16	2299	1.51	10.33
16	2845	1.61	10.33
16	3391	1.71	10.33
16	3937	1.81	10.33
16	4483	1.91	10.33
16	5037	2.01	10.33
16	5583	2.11	10.33
16	6129	2.21	10.3299
16	6675	2.31	10.3299
16	7221	2.41	10.3299
16	7767	2.51	10.3299
16	8313	2.61	10.3299
16	8859	2.71	10.3298
16	9405	2.81	10.3298
16	9951	2.91	10.3298
16	10505	3.01	10.3298
16	11051	3.11	10.3298
16	11597	3.21	10.3298
16	12143	3.31	10.3299
16	12689	3.41	10.3299
16	13235	3.51	10.3299
16	13781	3.61	10.3299
16	14327	3.71	10.33
16	14873	3.81	10.33
16	15419	3.91	10.3301
16	15973	4.01	10.3301
16	16519	4.11	10.3302
16	17065	4.21	10.3302
16	17611	4.31	10.3303
16	18157	4.41	10.3303
16	18703	4.51	10.3304
16	19249	4.61	10.3304
16	19795	4.71	10.3304
16	20341	4.81	10.3305
16	20887	4.91	10.3305
16	21442	5.01	10.3305
16	21988	5.11	10.3306
16	22534	5.21	10.3303
16	23080	5.31	10.3285
16	23626	5.41	10.3228
16	24172	5.51	10.3095
16	24718	5.61	10.2837
16	25264	5.71	10.2399
16	25810	5.81	10.1727
16	26356	5.91	10.0768
16	26910	6.01	9.94818
16	27456	6.11	9.78397
16	28002	6.21	9.58313
16	28548	6.31	9.34638
16	29094	6.41	9.07625
16	29640	6.51	8.77687
16	30186	6.61	8.4537
16	30732	6.71	8.11313
16	31278	6.81	7.7621
16	31824	6.91	7.40759
16	32378	7.01	7.05396
16	32924	7.11	6.70222
16	33470	7.21	6.35353
16	34016	7.31	6.00934
16	34562	7.41	5.67125
16	35108	7.51	5.34088
16	35654	7.61	5.01973
16	36200	7.71	4.70917
16	36746	7.81	4.41031
16	37292	7.91	4.12398
16	37846	8.01	3.85078
16	38392	8.11	3.591
16	38938	8.21	3.3447
16	39484	8.31	3.11139
16	40030	8.41	2.88975
16	40576	8.51	2.6778
16	41122	8.61	2.47316
16	41668	8.71	2.2733
16	42214	8.81	2.07574
16	42760	8.91	1.87821
16	43314	9.01	1.67881
16	43860	9.11	1.47679
16	44406	9.21	1.2752
16	44952	9.31	1.08152
16	45498	9.41	0.937897
16	46044	9.51	0
17	115	1.11	-3.45898e-08
17	661	1.21	-5.72043e-07
17	1207	1.31	-2.71409e-06
17	1753	1.41	-7.80128e-06
17	2299	1.51	-1.70098e-05
17	2845	1.61	-3.10411e-05
17	3391	1.71	-4.99262e-05
17	3937	1.81	-7.29503e-05
17	4483	1.91	-9.86899e-05
17	5037	2.01	-0.000125141
17	5583	2.11	-0.000149916
17	6129	2.21	-0.000170478
17	6675	2.31	-0.000184384
17	7221	2.41	-0.000189516
17	7767	2.51	-0.000184267
17	8313	2.61	-0.000167682
17	8859	2.71	-0.000139536
17	9405	2.81	-0.000100346
17	9951	2.91	-5.13284e-05
17	10505	3.01	5.70134e-06
17	11051	3.11	6.84627e-05
17	11597	3.21	0.000134375
17	12143	3.31	0.000200731
17	12689	3.41	0.000264872
17	13235	3.51	0.000324345
17	13781	3.61	0.000377039
17	14327	3.71	0.000421287
17	14873	3.81	0.000455931
17	15419	3.91	0.000480358
17	15973	4.01	0.000494486
17	16519	4.11	0.000498734
17	17065	4.21	0.000493952
17	17611	4.31	0.000481339
17	18157	4.41	0.000462346
17	18703	4.51	0.000438573
17	19249	4.61	0.000411669
17	19795	4.71	0.00038324
17	20341	4.81	0.000354765
17	20887	4.91	0.000327537
17	21442	5.01	0.000302611
17	21988	5.11	-0.000400279
17	22534	5.21	-0.00745268
17	23080	5.31	-0.0321317
17	23626	5.41	-0.087824
17	24172	5.51	-0.186866
17	24718	5.61	-0.338156
17	25264	5.71	-0.545624
17	25810	5.81	-0.807561
17	26356	5.91	-1.11672
17	26910	6.01	-1.46107
17	27456	6.11	-1.82497
17	28002	6.21	-2.1907
17	28548	6.31	-2.54002
17	29094	6.41	-2.8557
17	29640	6.51	-3.12287
17	30186	6.61	-3.33003
17	30732	6.71	-3.46978
17	31278	6.81	-3.53909
17	31824	6.91	-3.54296
17	32378	7.01	-3.52843
17	32924	7.11	-3.50437
17	33470	7.21	-3.46701
17	34016	7.31	-3.41414
17	34562	7.41	-3.345
17	35108	7.51	-3.26002
17	35654	7.61	-3.16059
17	36200	7.71	-3.04879
17	36746	7.81	-2.92715
17	37292	7.91	-2.79839
17	37846	8.01	-2.66523
17	38392	8.11	-2.53021
17	38938	8.21	-2.39649
17	39484	8.31	-2.2719
17	40030	8.41	-2.16425
17	40576	8.51	-2.07878
17	41122	8.61	-2.01822
17	41668	8.71	-1.98308
17	42214	8.81	-1.97191
17	42760	8.91	-1.98178
17	43314	9.01	-2.0083
17	43860	9.11	-2.02691
17	44406	9.21	-1.9931
17	44952	9.31	-1.80266
17	45498	9.41	-1.07633
17	46044	9.51	-0.292487
18	115	1.11	2
18	661	1.21	2
18	1207	1.31	2
18	1753	1.41	2
18	2299	1.51	2
18	2845	1.61	2
18	3391	1.71	2
18	3937	1.81	2
18	4483	1.91	2
18	5037	2.01	2
18	5583	2.11	2
18	6129	2.21	2
18	6675	2.31	2
18	7221	2.41	2
18	7767	2.51	2
18	8313	2.61	2
18	8859	2.71	2
18	9405	2.81	2
18	9951	2.91	2
18	10505	3.01	2
18	11051	3.11	2
18	11597	3.21	2
18	12143	3.31	2
18	12689	3.41	2
18	13235	3.51	2
18	13781	3.61	2
18	14327	3.71	2
18	14873	3.81	2
18	15419	3.91	2
18	15973	4.01	2
18	16519	4.11	2
18	17065	4.21	2
18	17611	4.31	2
18	18157	4.41	2
18	18703	4.51	2
18	19249	4.61	2
18	19795	4.71	2
18	20341	4.81	2
18	20887	4.91	2
18	21442	5.01	2
18	21988	5.11	2
18	22534	5.21	2
18	23080	5.31	2
18	23626	5.41	2
18	24172	5.51	2
18	24718	5.61	2
18	25264	5.71	2
18	25810	5.81	2
18	26356	5.91	2
18	26910	6.01	2
18	27456	6.11	2
18	28002	6.21	2
18	28548	6.31	2
18	29094	6.41	2
18	29640	6.51	2
18	30186	6.61	2
18	30732	6.71	2
18	31278	6.81	2
18	31824	6.91	2
18	32378	7.01	2
18	32924	7.11	2
18	33470	7.21	2
18	34016	7.31	2
18	34562	7.41	2
18	35108	7.51	2
18	35654	7.61	2
18	36200	7.71	2
18	36746	7.81	2
18	37292	7.91	2
18	37846	8.01	2
18	38392	8.11	2
18	38938	8.21	2
18	39484	8.31	2
18	40030	8.41	2
18	40576	8.51	2
18	41122	8.61	2
18	41668	8.71	2
18	42214	8.81	2
18	42760	8.91	2
18	43314	9.01	2
18	43860	9.11	2
18	44406	9.21	2
18	44952	9.31	2
18	45498	9.41	2
18	46044	9.51	2
19	115	1.11	-0.000217605
19	661	1.21	-0.000417722
19	1207	1.31	-0.000581846
19	1753	1.41	-0.000717496
19	2299	1.51	-0.000831682
19	2845	1.61	-0.000930803
19	3391	1.71	-0.0010204
19	3937	1.81	-0.00110489
19	4483	1.91	-0.00118727
19	5037	2.01	-0.00126903
19	5583	2.11	-0.00135006
19	6129	2.21	-0.00142879
19	6675	2.31	-0.00150238
19	7221	2.41	-0.00156713
19	7767	2.51	-0.00161879
19	8313	2.61	-0.00165309
19	8859	2.71	-0.00166609
19	9405	2.81	-0.00165463
19	9951	2.91	-0.00161657
19	10505	3.01	-0.00155106
19	11051	3.11	-0.00145865
19	11597	3.21	-0.00134123
19	12143	3.31	-0.00120198
19	12689	3.41	-0.00104515
19	13235	3.51	-0.000875843
19	13781	3.61	-0.000699637
19	14327	3.71	-0.000522324
19	14873	3.81	-0.000349562
19	15419	3.91	-0.000186583
19	15973	4.01	-3.79406e-05
19	16519	4.11	9.2688e-05
19	17065	4.21	0.000202634
19	17611	4.31	0.000290303
19	18157	4.41	0.000355172
19	18703	4.51	0.000397731
19	19249	4.61	0.00041937
19	19795	4.71	0.000422225
19	20341	4.81	0.000409006
19	20887	4.91	0.000382797
19	21442	5.01	0.000346871
19	21988	5.11	0.000224757
19	22534	5.21	-0.0016208
19	23080	5.31	-0.0116794
19	23626	5.41	-0.0428791
19	24172	5.51	-0.113831
19	24718	5.61	-0.246512
19	25264	5.71	-0.463143
19	25810	5.81	-0.782927
19	26356	5.91	-1.21917
19	26910	6.01	-1.77712
19	27456	6.11	-2.4528
19	28002	6.21	-3.23286
19	28548	6.31	-4.09529
19	29094	6.41	-5.01113
19	29640	6.51	-5.94658
19	30186	6.61	-6.86559
19	30732	6.71	-7.73252
19	31278	6.81	-8.51457
19	31824	6.91	-9
19	32378	7.01	-9
19	32924	7.11	-9
19	33470	7.21	-9
19	34016	7.31	-9
19	34562	7.41	-9
19	35108	7.51	-9
19	35654	7.61	-9
19	36200	7.71	-9
19	36746	7.81	-9
19	37292	7.91	-9
19	37846	8.01	-9
19	38392	8.11	-9
19	38938	8.21	-8.97237
19	39484	8.31	-8.87146
19	40030	8.41	-8.71618
19	40576	8.51	-8.52767
19	41122	8.61	-8.32588
19	41668	8.71	-8.12836
19	42214	8.81	-7.94938
19	42760	8.91	-7.79946
19	43314	9.01	-7.68522
19	43860	9.11	-7.60559
19	44406	9.21	-7.53721
19	44952	9.31	-7.43593
19	45498	9.41	-7.06035
19	46044	9.51	-9
20	115	1.11	-0.00133251
20	661	1.21	-0.00133089
20	1207	1.31	-0.00133239
20	1753	1.41	-0.00134187
20	2299	1.51	-0.00136373
20	2845	1.61	-0.00140081
20	3391	1.71	-0.00145377
20	3937	1.81	-0.00152069
20	4483	1.91	-0.0015972
20	5037	2.01	-0.00167688
20	5583	2.11	-0.00175186
20	6129	2.21	-0.00181361
20	6675	2.31	-0.00185378
20	7221	2.41	-0.001865
20	7767	2.51	-0.00184151
20	8313	2.61	-0.00177967
20	8859	2.71	-0.0016783
20	9405	2.81	-0.00153873
20	9951	2.91	-0.00136469
20	10505	3.01	-0.00116201
20	11051	3.11	-0.000938214
20	11597	3.21	-0.00070192
20	12143	3.31	-0.000462307
20	12689	3.41	-0.0002285
20	13235	3.51	-9.02592e-06
20	13781	3.61	0.000188661
20	14327	3.71	0.000358549
20	14873	3.81	0.000496324
20	15419	3.91	0.000599494
20	15973	4.01	0.000667395
20	16519	4.11	0.000701082
20	17065	4.21	0.000703132
20	17611	4.31	0.000677368
20	18157	4.41	0.000628542
20	18703	4.51	0.000561988
20	19249	4.61	0.000483282
20	19795	4.71	0.000397919
20	20341	4.81	0.000311032
20	20887	4.91	0.000227161
20	21442	5.01	0.000150079
20	21988	5.11	-0.0015057
20	22534	5.21	-0.0214998
20	23080	5.31	-0.0963701
20	23626	5.41	-0.271177
20	24172	5.51	-0.58871
20	24718	5.61	-1.08113
20	25264	5.71	-1.76444
20	25810	5.81	-2.63577
20	26356	5.91	-3.67337
20	26910	6.01	-4.83879
20	27456	6.11	-6.08067
20	28002	6.21	-7.33968
20	28548	6.31	-8.55381
20	29094	6.41	-9.66363
20	29640	6.51	-10.6169
20	30186	6.61	-11.3722
20	30732	6.71	-11.9016
20	31278	6.81	-12.192
20	31824	6.91	-12.2513
20	32378	7.01	-12.233
20	32924	7.11	-12.184
20	33470	7.21	-12.0906
20	34016	7.31	-11.9447
20	34562	7.41	-11.7425
20	35108	7.51	-11.4848
20	35654	7.61	-11.1753
20	36200	7.71	-10.8203
20	36746	7.81	-10.4277
20	37292	7.91	-10.0063
20	37846	8.01	-9.56502
20	38392	8.11	-9.11228
20	38938	8.21	-8.65779
20	39484	8.31	-8.22702
20	40030	8.41	-7.8478
20	40576	8.51	-7.53955
20	41122	8.61	-7.31325
20	41668	8.71	-7.17213
20	42214	8.81	-7.11271
20	42760	8.91	-7.12619
20	43314	9.01	-7.19939
20	43860	9.11	-7.26189
20	44406	9.21	-7.16386
20	44952	9.31	-6.74446
20	45498	9.41	-4.28813
20	46044	9.51	-38.2487
21	115	1.11	27.78
21	661	1.21	27.78
21	1207	1.31	27.7799
21	1753	1.41	27.7798
21	2299	1.51	27.7798
21	2845	1.61	27.7797
21	3391	1.71	27.7796
21	3937	1.81	27.7795
21	4483	1.91	27.7794
21	5037	2.01	27.7792
21	5583	2.11	27.7791
21	6129	2.21	27.779
21	6675	2.31	27.7788
21	7221	2.41	27.7787
21	7767	2.51	27.7785
21	8313	2.61	27.7783
21	8859	2.71	27.7782
21	9405	2.81	27.778
21	9951	2.91	27.7778
21	10505	3.01	27.7777
21	11051	3.11	27.7775
21	11597	3.21	27.7774
21	12143	3.31	27.7773
21	12689	3.41	27.7772
21	13235	3.51	27.7771
21	13781	3.61	27.777
21	14327	3.71	27.7769
21	14873	3.81	27.7769
21	15419	3.91	27.7768
21	15973	4.01	27.7768
21	16519	4.11	27.7768
21	17065	4.21	27.7769
21	17611	4.31	27.7769
21	18157	4.41	27.7769
21	18703	4.51	27.777
21	19249	4.61	27.777
21	19795	4.71	27.777
21	20341	4.81	27.7771
21	20887	4.91	27.7771
21	21442	5.01	27.7772
21	21988	5.11	27.7772
21	22534	5.21	27.7771
21	23080	5.31	27.7765
21	23626	5.41	27.7739
21	24172	5.51	27.7661
21	24718	5.61	27.748
21	25264	5.71	27.7123
21	25810	5.81	27.6493
21	26356	5.91	27.548
21	26910	6.01	27.3964
21	27456	6.11	27.1824
21	28002	6.21	26.895
21	28548	6.31	26.5249
21	29094	6.41	26.0653
21	29640	6.51	25.5127
21	30186	6.61	24.8673
21	30732	6.71	24.1324
21	31278	6.81	23.3154
21	31824	6.91	22.4297
21	32378	7.01	21.5297
21	32924	7.11	20.6297
21	33470	7.21	19.7297
21	34016	7.31	18.8297
21	34562	7.41	17.9297
21	35108	7.51	17.0297
21	35654	7.61	16.1297
21	36200	7.71	15.2297
21	36746	7.81	14.3297
21	37292	7.91	13.4297
21	37846	8.01	12.5297
21	38392	8.11	11.6297
21	38938	8.21	10.7306
21	39484	8.31	9.83839
21	40030	8.41	8.95942
21	40576	8.51	8.09799
21	41122	8.61	7.25628
21	41668	8.71	6.43466
21	42214	8.81	5.63187
21	42760	8.91	4.84545
21	43314	9.01	4.0721
21	43860	9.11	3.30818
21	44406	9.21	2.55132
21	44952	9.31	1.80266
21	45498	9.41	1.07633
21	46044	9.51	0.292487
22	115	1.11	82.6102
22	661	1.21	85.3882
22	1207	1.31	88.1662
22	1753	1.41	90.9442
22	2299	1.51	93.7222
22	2845	1.61	96.5001
22	3391	1.71	99.2781
22	3937	1.81	102.056
22	4483	1.91	104.834
22	5037	2.01	107.612
22	5583	2.11	110.39
22	6129	2.21	113.168
22	6675	2.31	115.946
22	7221	2.41	118.723
22	7767	2.51	121.501
22	8313	2.61	124.279
22	8859	2.71	127.057
22	9405	2.81	129.835
22	9951	2.91	132.613
22	10505	3.01	135.39
22	11051	3.11	138.168
22	11597	3.21	140.946
22	12143	3.31	143.724
22	12689	3.41	146.501
22	13235	3.51	149.279
22	13781	3.61	152.057
22	14327	3.71	154.834
22	14873	3.81	157.612
22	15419	3.91	160.39
22	15973	4.01	163.168
22	16519	4.11	165.945
22	17065	4.21	168.723
22	17611	4.31	171.501
22	18157	4.41	174.278
22	18703	4.51	177.056
22	19249	4.61	179.834
22	19795	4.71	182.611
22	20341	4.81	185.389
22	20887	4.91	188.167
22	21442	5.01	190.944
22	21988	5.11	193.722
22	22534	5.21	196.5
22	23080	5.31	199.278
22	23626	5.41	202.055
22	24172	5.51	204.832
22	24718	5.61	207.608
22	25264	5.71	210.381
22	25810	5.81	213.15
22	26356	5.91	215.91
22	26910	6.01	218.657
22	27456	6.11	221.387
22	28002	6.21	224.092
22	28548	6.31	226.763
22	29094	6.41	229.393
22	29640	6.51	231.973
22	30186	6.61	234.493
22	30732	6.71	236.944
22	31278	6.81	239.317
22	31824	6.91	241.604
22	32378	7.01	243.802
22	32924	7.11	245.91
22	33470	7.21	247.928
22	34016	7.31	249.856
22	34562	7.41	251.694
22	35108	7.51	253.442
22	35654	7.61	255.1
22	36200	7.71	256.668
22	36746	7.81	258.146
22	37292	7.91	259.534
22	37846	8.01	260.832
22	38392	8.11	262.04
22	38938	8.21	263.158
22	39484	8.31	264.186
22	40030	8.41	265.126
22	40576	8.51	265.979
22	41122	8.61	266.746
22	41668	8.71	267.431
22	42214	8.81	268.034
22	42760	8.91	268.558
22	43314	9.01	269.003
22	43860	9.11	269.372
22	44406	9.21	269.665
22	44952	9.31	269.883
22	45498	9.41	270.027
22	46044	9.51	270.098
23	115	1.11	242.45
23	661	1.21	242.45
23	1207	1.31	242.45
23	1753	1.41	242.45
23	2299	1.51	242.45
23	2845	1.61	242.45
23	3391	1.71	242.45
23	3937	1.81	242.45
23	4483	1.91	242.45
23	5037	2.01	242.45
23	5583	2.11	242.45
23	6129	2.21	242.45
23	6675	2.31	242.45
23	7221	2.41	242.45
23	7767	2.51	242.45
23	8313	2.61	242.45
23	8859	2.71	242.45
23	9405	2.81	242.45
23	9951	2.91	242.45
23	10505	3.01	242.45
23	11051	3.11	242.45
23	11597	3.21	242.45
23	12143	3.31	242.45
23	12689	3.41	242.45
23	13235	3.51	242.45
23	13781	3.61	242.45
23	14327	3.71	242.45
23	14873	3.81	242.45
23	15419	3.91	242.45
23	15973	4.01	242.45
23	16519	4.11	242.45
23	17065	4.21	242.45
23	17611	4.31	242.45
23	18157	4.41	242.45
23	18703	4.51	242.45
23	19249	4.61	242.45
23	19795	4.71	242.45
23	20341	4.81	242.45
23	20887	4.91	242.45
23	21442	5.01	242.45
23	21988	5.11	242.45
23	22534	5.21	242.45
23	23080	5.31	242.45
23	23626	5.41	242.45
23	24172	5.51	242.45
23	24718	5.61	242.45
23	25264	5.71	242.45
23	25810	5.81	242.45
23	26356	5.91	242.45
23	26910	6.01	242.45
23	27456	6.11	242.45
23	28002	6.21	242.45
23	28548	6.31	242.45
23	29094	6.41	242.45
23	29640	6.51	242.45
23	30186	6.61	242.45
23	30732	6.71	242.45
23	31278	6.81	242.45
23	31824	6.91	242.45
23	32378	7.01	242.45
23	32924	7.11	242.45
23	33470	7.21	242.45
23	34016	7.31	242.45
23	34562	7.41	242.45
23	35108	7.51	242.45
23	35654	7.61	242.45
23	36200	7.71	242.45
23	36746	7.81	242.45
23	37292	7.91	242.45
23	37846	8.01	242.45
23	38392	8.11	242.45
23	38938	8.21	242.45
23	39484	8.31	242.45
23	40030	8.41	242.45
23	40576	8.51	242.45
23	41122	8.61	242.45
23	41668	8.71	242.45
23	42214	8.81	242.45
23	42760	8.91	242.45
23	43314	9.01	242.45
23	43860	9.11	242.45
23	44406	9.21	242.45
23	44952	9.31	242.45
23	45498	9.41	242.45
23	46044	9.51	242.45
24	116	1.11	10.34
24	662	1.21	10.34
24	1208	1.31	10.34
24	1754	1.41	10.3399
24	2300	1.51	10.3399
24	2846	1.61	10.3398
24	3392	1.71	10.3398
24	3938	1.81	10.3397
24	4484	1.91	10.3396
24	5038	2.01	10.3395
24	5584	2.11	10.3393
24	6130	2.21	10.3392
24	6676	2.31	10.3391
24	7222	2.41	10.339
24	7768	2.51	10.3388
24	8314	2.61	10.3387
24	8860	2.71	10.3386
24	9406	2.81	10.3385
24	9952	2.91	10.3383
24	10506	3.01	10.3382
24	11052	3.11	10.3381
24	11598	3.21	10.338
24	12144	3.31	10.3379
24	12690	3.41	10.3379
24	13236	3.51	10.3378
24	13782	3.61	10.3377
24	14328	3.71	10.3377
24	14874	3.81	10.3376
24	15420	3.91	10.3376
24	15974	4.01	10.3375
24	16520	4.11	10.3375
24	17066	4.21	10.3375
24	17612	4.31	10.3375
24	18158	4.41	10.3374
24	18704	4.51	10.3374
24	19250	4.61	10.3374
24	19796	4.71	10.3374
24	20342	4.81	10.3374
24	20888	4.91	10.3374
24	21443	5.01	10.3374
24	21989	5.11	10.3373
24	22535	5.21	10.3373
24	23081	5.31	10.3373
24	23627	5.41	10.3371
24	24173	5.51	10.3364
24	24719	5.61	10.3345
24	25265	5.71	10.3302
24	25811	5.81	10.3214
24	26357	5.91	10.3053
24	26911	6.01	10.2785
24	27457	6.11	10.2365
24	28003	6.21	10.1747
24	28549	6.31	10.0881
24	29095	6.41	9.97184
24	29641	6.51	9.82192
24	30187	6.61	9.63513
24	30733	6.71	9.40967
24	31279	6.81	9.1453
24	31825	6.91	8.8436
24	32379	7.01	8.51017
24	32925	7.11	8.15476
24	33471	7.21	7.78705
24	34017	7.31	7.41556
24	34563	7.41	7.04395
24	35109	7.51	6.67234
24	35655	7.61	6.30074
24	36201	7.71	5.92913
24	36747	7.81	5.55753
24	37293	7.91	5.18592
24	37847	8.01	4.81432
24	38393	8.11	4.44271
24	38939	8.21	4.07113
24	39485	8.31	3.69991
24	40031	8.41	3.3301
24	40577	8.51	2.96323
24	41123	8.61	2.6012
24	41669	8.71	2.24601
24	42215	8.81	1.89961
24	42761	8.91	1.56378
24	43315	9.01	1.23999
24	43861	9.11	0.92936
24	44407	9.21	0.632702
24	44953	9.31	0.350739
24	45499	9.41	0.0847836
24	46045	9.51	0
25	116	1.11	-2.77881e-05
25	662	1.21	-0.000108425
25	1208	1.31	-0.000227467
25	1754	1.41	-0.00037075
25	2300	1.51	-0.000525267
25	2846	1.61	-0.000679818
25	3392	1.71	-0.000825411
25	3938	1.81	-0.000955426
25	4484	1.91	-0.00106556
25	5038	2.01	-0.0011536
25	5584	2.11	-0.00121909
25	6130	2.21	-0.00126289
25	6676	2.31	-0.00128679
25	7222	2.41	-0.00129303
25	7768	2.51	-0.00128405
25	8314	2.61	-0.00126215
25	8860	2.71	-0.00122934
25	9406	2.81	-0.00118725
25	9952	2.91	-0.00113715
25	10506	3.01	-0.00107998
25	11052	3.11	-0.00101649
25	11598	3.21	-0.000947322
25	12144	3.31	-0.000873187
25	12690	3.41	-0.000794944
25	13236	3.51	-0.00071369
25	13782	3.61	-0.0006308
25	14328	3.71	-0.000547922
25	14874	3.81	-0.000466928
25	15420	3.91	-0.000389833
25	15974	4.01	-0.000318689
25	16520	4.11	-0.000255457
25	17066	4.21	-0.000201878
25	17612	4.31	-0.000159361
25	18158	4.41	-0.000128881
25	18704	4.51	-0.000110905
25	19250	4.61	-0.000105363
25	19796	4.71	-0.00011164
25	20342	4.81	-0.000128613
25	20888	4.91	-0.000154717
25	21443	5.01	-0.000188037
25	21989	5.11	-0.0002283
25	22535	5.21	-0.000344462
25	23081	5.31	-0.00100585
25	23627	5.41	-0.00364571
25	24173	5.51	-0.0111959
25	24719	5.61	-0.0283786
25	25265	5.71	-0.0616375
25	25811	5.81	-0.118683
25	26357	5.91	-0.207706
25	26911	6.01	-0.336371
25	27457	6.11	-0.510728
25	28003	6.21	-0.734193
25	28549	6.31	-1.00675
25	29095	6.41	-1.32443
25	29641	6.51	-1.67926
25	30187	6.61	-2.05947
25	30733	6.71	-2.45023
25	31279	6.81	-2.8346
25	31825	6.91	-3.19105
25	32379	7.01	-3.46094
25	32925	7.11	-3.63114
25	33471	7.21	-3.70861
25	34017	7.31	-3.71605
25	34563	7.41	-3.71605
25	35109	7.51	-3.71605
25	35655	7.61	-3.71605
25	36201	7.71	-3.71605
25	36747	7.81	-3.71605
25	37293	7.91	-3.71605
25	37847	8.01	-3.71605
25	38393	8.11	-3.71605
25	38939	8.21	-3.71516
25	39485	8.31	-3.70738
25	40031	8.41	-3.68635
25	40577	8.51	-3.64779
25	41123	8.61	-3.58949
25	41669	8.71	-3.51111
25	42215	8.81	-3.4139
25	42761	8.91	-3.30032
25	43315	9.01	-3.17367
25	43861	9.11	-3.03759
25	44407	9.21	-2.89445
25	44953	9.31	-2.74311
25	45499	9.41	-2.56944
25	46045	9.51	0
26	116	1.11	3
26	662	1.21	3
26	1208	1.31	3
26	1754	1.41	3
26	2300	1.51	3
26	2846	1.61	3
26	3392	1.71	3
26	3938	1.81	3
26	4484	1.91	3
26	5038	2.01	3
26	5584	2.11	3
26	6130	2.21	3
26	6676	2.31	3
26	7222	2.41	3
26	7768	2.51	3
26	8314	2.61	3
26	8860	2.71	3
26	9406	2.81	3
26	9952	2.91	3
26	10506	3.01	3
26	11052	3.11	3
26	11598	3.21	3
26	12144	3.31	3
26	12690	3.41	3
26	13236	3.51	3
26	13782	3.61	3
26	14328	3.71	3
26	14874	3.81	3
26	15420	3.91	3
26	15974	4.01	3
26	16520	4.11	3
26	17066	4.21	3
26	17612	4.31	3
26	18158	4.41	3
26	18704	4.51	3
26	19250	4.61	3
26	19796	4.71	3
26	20342	4.81	3
26	20888	4.91	3
26	21443	5.01	3
26	21989	5.11	3
26	22535	5.21	3
26	23081	5.31	3
26	23627	5.41	3
26	24173	5.51	3
26	24719	5.61	3
26	25265	5.71	3
26	25811	5.81	3
26	26357	5.91	3
26	26911	6.01	3
26	27457	6.11	3
26	28003	6.21	3
26	28549	6.31	3
26	29095	6.41	3
26	29641	6.51	3
26	30187	6.61	3
26	30733	6.71	3
26	31279	6.81	3
26	31825	6.91	3
26	32379	7.01	3
26	32925	7.11	3
26	33471	7.21	3
26	34017	7.31	3
26	34563	7.41	3
26	35109	7.51	3
26	35655	7.61	3
26	36201	7.71	3
26	36747	7.81	3
26	37293	7.91	3
26	37847	8.01	3
26	38393	8.11	3
26	38939	8.21	3
26	39485	8.31	3
26	40031	8.41	3
26	40577	8.51	3
26	41123	8.61	3
26	41669	8.71	3
26	42215	8.81	3
26	42761	8.91	3
26	43315	9.01	3
26	43861	9.11	3
26	44407	9.21	3
26	44953	9.31	3
26	45499	9.41	3
26	46045	9.51	3
27	116	1.11	0.000321619
27	662	1.21	0.000585408
27	1208	1.31	0.000740381
27	1754	1.41	0.000786108
27	2300	1.51	0.000730479
27	2846	1.61	0.000587387
27	3392	1.71	0.000374488
27	3938	1.81	0.000111164
27	4484	1.91	-0.000183194
27	5038	2.01	-0.000490525
27	5584	2.11	-0.000795047
27	6130	2.21	-0.0010838
27	6676	2.31	-0.00134683
27	7222	2.41	-0.00157714
27	7768	2.51	-0.00177035
27	8314	2.61	-0.00192426
27	8860	2.71	-0.00203837
27	9406	2.81	-0.00211337
27	9952	2.91	-0.00215072
27	10506	3.01	-0.00215231
27	11052	3.11	-0.00212019
27	11598	3.21	-0.0020565
27	12144	3.31	-0.0019634
27	12690	3.41	-0.00184316
27	13236	3.51	-0.00169823
27	13782	3.61	-0.0015314
27	14328	3.71	-0.00134587
27	14874	3.81	-0.00114535
27	15420	3.91	-0.000934104
27	15974	4.01	-0.000716885
27	16520	4.11	-0.000498846
27	17066	4.21	-0.000285384
27	17612	4.31	-8.19316e-05
27	18158	4.41	0.000106282
27	18704	4.51	0.000274478
27	19250	4.61	0.000418565
27	19796	4.71	0.000535352
27	20342	4.81	0.000622713
27	20888	4.91	0.000679691
27	21443	5.01	0.000706541
27	21989	5.11	0.000704562
27	22535	5.21	0.000663913
27	23081	5.31	0.000447399
27	23627	5.41	-0.000581167
27	24173	5.51	-0.00420889
27	24719	5.61	-0.0141759
27	25265	5.71	-0.0369176
27	25811	5.81	-0.0820295
27	26357	5.91	-0.162281
27	26911	6.01	-0.293084
27	27457	6.11	-0.491419
27	28003	6.21	-0.774298
27	28549	6.31	-1.15694
27	29095	6.41	-1.65084
27	29641	6.51	-2.262
27	30187	6.61	-2.98951
27	30733	6.71	-3.8246
27	31279	6.81	-4.75045
27	31825	6.91	-5.74241
27	32379	7.01	-6.75664
27	32925	7.11	-7.73069
27	33471	7.21	-8.61308
27	34017	7.31	-9
27	34563	7.41	-9
27	35109	7.51	-9
27	35655	7.61	-9
27	36201	7.71	-9
27	36747	7.81	-9
27	37293	7.91	-9
27	37847	8.01	-9
27	38393	8.11	-9
27	38939	8.21	-9
27	39485	8.31	-9
27	40031	8.41	-9
27	40577	8.51	-9
27	41123	8.61	-9
27	41669	8.71	-9
27	42215	8.81	-9
27	42761	8.91	-9
27	43315	9.01	-9
27	43861	9.11	-9
27	44407	9.21	-9
27	44953	9.31	-9
27	45499	9.41	-9
27	46045	9.51	-9
28	116	1.11	0.00192379
28	662	1.21	0.00166409
28	1208	1.31	0.00126616
28	1754	1.41	0.000777448
28	2300	1.51	0.000242249
28	2846	1.61	-0.000300693
28	3392	1.71	-0.000819714
28	3938	1.81	-0.00129095
28	4484	1.91	-0.0016983
28	5038	2.01	-0.00203284
28	5584	2.11	-0.00229168
28	6130	2.21	-0.0024767
28	6676	2.31	-0.00259307
28	7222	2.41	-0.0026479
28	7768	2.51	-0.00264903
28	8314	2.61	-0.00260412
28	8860	2.71	-0.00251998
28	9406	2.81	-0.00240225
28	9952	2.91	-0.00225536
28	10506	3.01	-0.00208266
28	11052	3.11	-0.00188679
28	11598	3.21	-0.00167006
28	12144	3.31	-0.00143491
28	12690	3.41	-0.00118428
28	13236	3.51	-0.000921867
28	13782	3.61	-0.000652319
28	14328	3.71	-0.00038121
28	14874	3.81	-0.000114913
28	15420	3.91	0.000139664
28	15974	4.01	0.000375434
28	16520	4.11	0.000585553
28	17066	4.21	0.000763847
28	17612	4.31	0.000905224
28	18158	4.41	0.00100602
28	18704	4.51	0.00106427
28	19250	4.61	0.00107981
28	19796	4.71	0.00105439
28	20342	4.81	0.000991471
28	20888	4.91	0.000896109
28	21443	5.01	0.000774607
28	21989	5.11	0.000630544
28	22535	5.21	0.00028792
28	23081	5.31	-0.00161224
28	23627	5.41	-0.0094677
28	24173	5.51	-0.0325763
28	24719	5.61	-0.0862519
28	25265	5.71	-0.19176
28	25811	5.81	-0.37495
28	26357	5.91	-0.663732
28	26911	6.01	-1.08474
28	27457	6.11	-1.65967
28	28003	6.21	-2.40175
28	28549	6.31	-3.31287
28	29095	6.41	-4.38175
28	29641	6.51	-5.58333
28	30187	6.61	-6.87951
28	30733	6.71	-8.22127
28	31279	6.81	-9.55177
28	31825	6.91	-10.8043
28	32379	7.01	-11.786
28	32925	7.11	-12.4316
28	33471	7.21	-12.7602
28	34017	7.31	-12.8328
28	34563	7.41	-12.8667
28	35109	7.51	-12.9006
28	35655	7.61	-12.9345
28	36201	7.71	-12.9683
28	36747	7.81	-13.0022
28	37293	7.91	-13.0361
28	37847	8.01	-13.0699
28	38393	8.11	-13.1038
28	38939	8.21	-13.1356
28	39485	8.31	-13.1468
28	40031	8.41	-13.1152
28	40577	8.51	-13.0254
28	41123	8.61	-12.8686
28	41669	8.71	-12.6426
28	42215	8.81	-12.3503
28	42761	8.91	-11.9991
28	43315	9.01	-11.599
28	43861	9.11	-11.1621
28	44407	9.21	-10.6966
28	44953	9.31	-10.2
28	45499	9.41	-9.63284
28	46045	9.51	-16.9947
29	116	1.11	27.78
29	662	1.21	27.7801
29	1208	1.31	27.7801
29	1754	1.41	27.7802
29	2300	1.51	27.7803
29	2846	1.61	27.7804
29	3392	1.71	27.7804
29	3938	1.81	27.7804
29	4484	1.91	27.7804
29	5038	2.01	27.7804
29	5584	2.11	27.7803
29	6130	2.21	27.7802
29	6676	2.31	27.7801
29	7222	2.41	27.78
29	7768	2.51	27.7798
29	8314	2.61	27.7796
29	8860	2.71	27.7794
29	9406	2.81	27.7792
29	9952	2.91	27.779
29	10506	3.01	27.7788
29	11052	3.11	27.7785
29	11598	3.21	27.7783
29	12144	3.31	27.7781
29	12690	3.41	27.7779
29	13236	3.51	27.7778
29	13782	3.61	27.7776
29	14328	3.71	27.7775
29	14874	3.81	27.7773
29	15420	3.91	27.7772
29	15974	4.01	27.7772
29	16520	4.11	27.7771
29	17066	4.21	27.7771
29	17612	4.31	27.777
29	18158	4.41	27.777
29	18704	4.51	27.7771
29	19250	4.61	27.7771
29	19796	4.71	27.7771
29	20342	4.81	27.7772
29	20888	4.91	27.7773
29	21443	5.01	27.7773
29	21989	5.11	27.7774
29	22535	5.21	27.7775
29	23081	5.31	27.7775
29	23627	5.41	27.7775
29	24173	5.51	27.7773
29	24719	5.61	27.7764
29	25265	5.71	27.7739
29	25811	5.81	27.768
29	26357	5.91	27.7557
29	26911	6.01	27.7327
29	27457	6.11	27.6932
29	28003	6.21	27.6292
29	28549	6.31	27.5316
29	29095	6.41	27.3897
29	29641	6.51	27.192
29	30187	6.61	26.9267
29	30733	6.71	26.5827
29	31279	6.81	26.1499
29	31825	6.91	25.6208
29	32379	7.01	24.9907
29	32925	7.11	24.2609
29	33471	7.21	23.4383
29	34017	7.31	22.5458
29	34563	7.41	21.6458
29	35109	7.51	20.7458
29	35655	7.61	19.8458
29	36201	7.71	18.9458
29	36747	7.81	18.0458
29	37293	7.91	17.1458
29	37847	8.01	16.2458
29	38393	8.11	15.3458
29	38939	8.21	14.4458
29	39485	8.31	13.5458
29	40031	8.41	12.6458
29	40577	8.51	11.7458
29	41123	8.61	10.8458
29	41669	8.71	9.94577
29	42215	8.81	9.04577
29	42761	8.91	8.14577
29	43315	9.01	7.24577
29	43861	9.11	6.34577
29	44407	9.21	5.44577
29	44953	9.31	4.54577
29	45499	9.41	3.64577
29	46045	9.51	0.0799472
30	116	1.11	68.2702
30	662	1.21	71.0482
30	1208	1.31	73.8262
30	1754	1.41	76.6042
30	2300	1.51	79.3823
30	2846	1.61	82.1603
30	3392	1.71	84.9383
30	3938	1.81	87.7164
30	4484	1.91	90.4944
30	5038	2.01	93.2724
30	5584	2.11	96.0505
30	6130	2.21	98.8285
30	6676	2.31	101.607
30	7222	2.41	104.385
30	7768	2.51	107.163
30	8314	2.61	109.94
30	8860	2.71	112.718
30	9406	2.81	115.496
30	9952	2.91	118.274
30	10506	3.01	121.052
30	11052	3.11	123.83
30	11598	3.21	126.608
30	12144	3.31	129.386
30	12690	3.41	132.163
30	13236	3.51	134.941
30	13782	3.61	137.719
30	14328	3.71	140.497
30	14874	3.81	143.275
30	15420	3.91	146.052
30	15974	4.01	148.83
30	16520	4.11	151.608
30	17066	4.21	154.385
30	17612	4.31	157.163
30	18158	4.41	159.941
30	18704	4.51	162.719
30	19250	4.61	165.496
30	19796	4.71	168.274
30	20342	4.81	171.052
30	20888	4.91	173.829
30	21443	5.01	176.607
30	21989	5.11	179.385
30	22535	5.21	182.163
30	23081	5.31	184.94
30	23627	5.41	187.718
30	24173	5.51	190.496
30	24719	5.61	193.274
30	25265	5.71	196.051
30	25811	5.81	198.828
30	26357	5.91	201.604
30	26911	6.01	204.379
30	27457	6.11	207.15
30	28003	6.21	209.917
30	28549	6.31	212.675
30	29095	6.41	215.422
30	29641	6.51	218.151
30	30187	6.61	220.858
30	30733	6.71	223.534
30	31279	6.81	226.171
30	31825	6.91	228.761
30	32379	7.01	231.292
30	32925	7.11	233.755
30	33471	7.21	236.141
30	34017	7.31	238.441
30	34563	7.41	240.65
30	35109	7.51	242.77
30	35655	7.61	244.799
30	36201	7.71	246.739
30	36747	7.81	248.589
30	37293	7.91	250.348
30	37847	8.01	252.018
30	38393	8.11	253.597
30	38939	8.21	255.087
30	39485	8.31	256.486
30	40031	8.41	257.796
30	40577	8.51	259.016
30	41123	8.61	260.145
30	41669	8.71	261.185
30	42215	8.81	262.134
30	42761	8.91	262.994
30	43315	9.01	263.763
30	43861	9.11	264.443
30	44407	9.21	265.033
30	44953	9.31	265.532
30	45499	9.41	265.942
30	46045	9.51	266.101
31	116	1.11	242.45
31	662	1.21	242.45
31	1208	1.31	242.45
31	1754	1.41	242.45
31	2300	1.51	242.45
31	2846	1.61	242.45
31	3392	1.71	242.45
31	3938	1.81	242.45
31	4484	1.91	242.45
31	5038	2.01	242.45
31	5584	2.11	242.45
31	6130	2.21	242.45
31	6676	2.31	242.45
31	7222	2.41	242.45
31	7768	2.51	242.45
31	8314	2.61	242.45
31	8860	2.71	242.45
31	9406	2.81	242.45
31	9952	2.91	242.45
31	10506	3.01	242.45
31	11052	3.11	242.45
31	11598	3.21	242.45
31	12144	3.31	242.45
31	12690	3.41	242.45
31	13236	3.51	242.45
31	13782	3.61	242.45
31	14328	3.71	242.45
31	14874	3.81	242.45
31	15420	3.91	242.45
31	15974	4.01	242.45
31	16520	4.11	242.45
31	17066	4.21	242.45
31	17612	4.31	242.45
31	18158	4.41	242.45
31	18704	4.51	242.45
31	19250	4.61	242.45
31	19796	4.71	242.45
31	20342	4.81	242.45
31	20888	4.91	242.45
31	21443	5.01	242.45
31	21989	5.11	242.45
31	22535	5.21	242.45
31	23081	5.31	242.45
31	23627	5.41	242.45
31	24173	5.51	242.45
31	24719	5.61	242.45
31	25265	5.71	242.45
31	25811	5.81	242.45
31	26357	5.91	242.45
31	26911	6.01	242.45
31	27457	6.11	242.45
31	28003	6.21	242.45
31	28549	6.31	242.45
31	29095	6.41	242.45
31	29641	6.51	242.45
31	30187	6.61	242.45
31	30733	6.71	242.45
31	31279	6.81	242.45
31	31825	6.91	242.45
31	32379	7.01	242.45
31	32925	7.11	242.45
31	33471	7.21	242.45
31	34017	7.31	242.45
31	34563	7.41	242.45
31	35109	7.51	242.45
31	35655	7.61	242.45
31	36201	7.71	242.45
31	36747	7.81	242.45
31	37293	7.91	242.45
31	37847	8.01	242.45
31	38393	8.11	242.45
31	38939	8.21	242.45
31	39485	8.31	242.45
31	40031	8.41	242.45
31	40577	8.51	242.45
31	41123	8.61	242.45
31	41669	8.71	242.45
31	42215	8.81	242.45
31	42761	8.91	242.45
31	43315	9.01	242.45
31	43861	9.11	242.45
31	44407	9.21	242.45
31	44953	9.31	242.45
31	45499	9.41	242.45
31	46045	9.51	242.45
32	117	1.11	10.33
32	663	1.21	10.33
32	1209	1.31	10.33
32	1755	1.41	10.3301
32	2301	1.51	10.3301
32	2847	1.61	10.3301
32	3393	1.71	10.3302
32	3939	1.81	10.3303
32	4485	1.91	10.3303
32	5039	2.01	10.3304
32	5585	2.11	10.3304
32	6131	2.21	10.3305
32	6677	2.31	10.3305
32	7223	2.41	10.3305
32	7769	2.51	10.3305
32	8315	2.61	10.3305
32	8861	2.71	10.3304
32	9407	2.81	10.3304
32	9953	2.91	10.3303
32	10507	3.01	10.3303
32	11053	3.11	10.3302
32	11599	3.21	10.3301
32	12145	3.31	10.3301
32	12691	3.41	10.33
32	13237	3.51	10.33
32	13783	3.61	10.3299
32	14329	3.71	10.3299
32	14875	3.81	10.3299
32	15421	3.91	10.3299
32	15975	4.01	10.3299
32	16521	4.11	10.3299
32	17067	4.21	10.3299
32	17613	4.31	10.33
32	18159	4.41	10.33
32	18705	4.51	10.3301
32	19251	4.61	10.3302
32	19797	4.71	10.3302
32	20343	4.81	10.3303
32	20889	4.91	10.3304
32	21444	5.01	10.3305
32	21990	5.11	10.3305
32	22536	5.21	10.3306
32	23082	5.31	10.3307
32	23628	5.41	10.3307
32	24174	5.51	10.3308
32	24720	5.61	10.3308
32	25266	5.71	10.3306
32	25812	5.81	10.33
32	26358	5.91	10.3286
32	26912	6.01	10.3256
32	27458	6.11	10.3198
32	28004	6.21	10.3095
32	28550	6.31	10.2924
32	29096	6.41	10.2654
32	29642	6.51	10.2248
32	30188	6.61	10.1664
32	30734	6.71	10.0855
32	31280	6.81	9.97726
32	31826	6.91	9.83705
32	32380	7.01	9.66067
32	32926	7.11	9.44497
32	33472	7.21	9.18838
32	34018	7.31	8.89153
32	34564	7.41	8.56074
32	35110	7.51	8.20615
32	35656	7.61	7.8377
32	36202	7.71	7.46435
32	36748	7.81	7.09073
32	37294	7.91	6.71712
32	37848	8.01	6.34351
32	38394	8.11	5.9699
32	38940	8.21	5.59628
32	39486	8.31	5.22267
32	40032	8.41	4.84906
32	40578	8.51	4.47544
32	41124	8.61	4.10183
32	41670	8.71	3.72822
32	42216	8.81	3.35461
32	42762	8.91	2.98099
32	43316	9.01	2.60738
32	43862	9.11	2.23377
32	44408	9.21	1.86016
32	44954	9.31	1.48654
32	45500	9.41	1.11293
32	46046	9.51	0.57936
33	117	1.11	2.76548e-05
33	663	1.21	0.000106207
33	1209	1.31	0.000216839
33	1755	1.41	0.000339754
33	2301	1.51	0.000456373
33	2847	1.61	0.000551019
33	3393	1.71	0.000612017
33	3939	1.81	0.00063225
33	4485	1.91	0.000609194
33	5039	2.01	0.000544542
33	5585	2.11	0.000443508
33	6131	2.21	0.000313943
33	6677	2.31	0.000165358
33	7223	2.41	7.96806e-06
33	7769	2.51	-0.000148178
33	8315	2.61	-0.000293913
33	8861	2.71	-0.000421488
33	9407	2.81	-0.000524911
33	9953	2.91	-0.000600107
33	10507	3.01	-0.000644903
33	11053	3.11	-0.000658895
33	11599	3.21	-0.000643211
33	12145	3.31	-0.000600219
33	12691	3.41	-0.000533219
33	13237	3.51	-0.000446135
33	13783	3.61	-0.000343241
33	14329	3.71	-0.000228924
33	14875	3.81	-0.000107504
33	15421	3.91	1.69029e-05
33	15975	4.01	0.000140478
33	16521	4.11	0.000259752
33	17067	4.21	0.00037164
33	17613	4.31	0.000473455
33	18159	4.41	0.000562917
33	18705	4.51	0.000638165
33	19251	4.61	0.000697765
33	19797	4.71	0.000740732
33	20343	4.81	0.000766545
33	20889	4.91	0.00077517
33	21444	5.01	0.000767069
33	21990	5.11	0.0007432
33	22536	5.21	0.000704609
33	23082	5.31	0.000646383
33	23628	5.41	0.000527384
33	24174	5.51	0.000189284
33	24720	5.61	-0.000792357
33	25266	5.71	-0.00332099
33	25812	5.81	-0.00902759
33	26358	5.91	-0.0205066
33	26912	6.01	-0.0414804
33	27458	6.11	-0.0768353
33	28004	6.21	-0.132484
33	28550	6.31	-0.215032
33	29096	6.41	-0.331259
33	29642	6.51	-0.487437
33	30188	6.61	-0.688564
33	30734	6.71	-0.937579
33	31280	6.81	-1.23465
33	31826	6.91	-1.57664
33	32380	7.01	-1.95628
33	32926	7.11	-2.3604
33	33472	7.21	-2.77072
33	34018	7.31	-3.15483
33	34564	7.41	-3.44406
33	35110	7.51	-3.63124
33	35656	7.61	-3.72274
33	36202	7.71	-3.73613
33	36748	7.81	-3.73613
33	37294	7.91	-3.73613
33	37848	8.01	-3.73613
33	38394	8.11	-3.73613
33	38940	8.21	-3.73613
33	39486	8.31	-3.73613
33	40032	8.41	-3.73613
33	40578	8.51	-3.73613
33	41124	8.61	-3.73613
33	41670	8.71	-3.73613
33	42216	8.81	-3.73613
33	42762	8.91	-3.73613
33	43316	9.01	-3.73613
33	43862	9.11	-3.73613
33	44408	9.21	-3.73613
33	44954	9.31	-3.73613
33	45500	9.41	-3.73613
33	46046	9.51	-6.40195
34	117	1.11	4
34	663	1.21	4
34	1209	1.31	4
34	1755	1.41	4
34	2301	1.51	4
34	2847	1.61	4
34	3393	1.71	4
34	3939	1.81	4
34	4485	1.91	4
34	5039	2.01	4
34	5585	2.11	4
34	6131	2.21	4
34	6677	2.31	4
34	7223	2.41	4
34	7769	2.51	4
34	8315	2.61	4
34	8861	2.71	4
34	9407	2.81	4
34	9953	2.91	4
34	10507	3.01	4
34	11053	3.11	4
34	11599	3.21	4
34	12145	3.31	4
34	12691	3.41	4
34	13237	3.51	4
34	13783	3.61	4
34	14329	3.71	4
34	14875	3.81	4
34	15421	3.91	4
34	15975	4.01	4
34	16521	4.11	4
34	17067	4.21	4
34	17613	4.31	4
34	18159	4.41	4
34	18705	4.51	4
34	19251	4.61	4
34	19797	4.71	4
34	20343	4.81	4
34	20889	4.91	4
34	21444	5.01	4
34	21990	5.11	4
34	22536	5.21	4
34	23082	5.31	4
34	23628	5.41	4
34	24174	5.51	4
34	24720	5.61	4
34	25266	5.71	4
34	25812	5.81	4
34	26358	5.91	4
34	26912	6.01	4
34	27458	6.11	4
34	28004	6.21	4
34	28550	6.31	4
34	29096	6.41	4
34	29642	6.51	4
34	30188	6.61	4
34	30734	6.71	4
34	31280	6.81	4
34	31826	6.91	4
34	32380	7.01	4
34	32926	7.11	4
34	33472	7.21	4
34	34018	7.31	4
34	34564	7.41	4
34	35110	7.51	4
34	35656	7.61	4
34	36202	7.71	4
34	36748	7.81	4
34	37294	7.91	4
34	37848	8.01	4
34	38394	8.11	4
34	38940	8.21	4
34	39486	8.31	4
34	40032	8.41	4
34	40578	8.51	4
34	41124	8.61	4
34	41670	8.71	4
34	42216	8.81	4
34	42762	8.91	4
34	43316	9.01	4
34	43862	9.11	4
34	44408	9.21	4
34	44954	9.31	4
34	45500	9.41	4
34	46046	9.51	4
35	117	1.11	-0.00021283
35	663	1.21	-0.000377094
35	1209	1.31	-0.000453563
35	1755	1.41	-0.000443556
35	2301	1.51	-0.00035984
35	2847	1.61	-0.00022344
35	3393	1.71	-6.0133e-05
35	3939	1.81	0.000102957
35	4485	1.91	0.000240369
35	5039	2.01	0.0003307
35	5585	2.11	0.000358264
35	6131	2.21	0.000313996
35	6677	2.31	0.000195628
35	7223	2.41	7.25579e-06
35	7769	2.51	-0.000241581
35	8315	2.61	-0.000537141
35	8861	2.71	-0.000862892
35	9407	2.81	-0.00120095
35	9953	2.91	-0.00153343
35	10507	3.01	-0.00184359
35	11053	3.11	-0.00211675
35	11599	3.21	-0.00234097
35	12145	3.31	-0.00250739
35	12691	3.41	-0.00261037
35	13237	3.51	-0.00264743
35	13783	3.61	-0.00261898
35	14329	3.71	-0.002528
35	14875	3.81	-0.00237957
35	15421	3.91	-0.00218047
35	15975	4.01	-0.00193871
35	16521	4.11	-0.00166313
35	17067	4.21	-0.00136305
35	17613	4.31	-0.00104793
35	18159	4.41	-0.000727115
35	18705	4.51	-0.000409604
35	19251	4.61	-0.000103853
35	19797	4.71	0.000182392
35	20343	4.81	0.000442256
35	20889	4.91	0.000669863
35	21444	5.01	0.000860469
35	21990	5.11	0.00101056
35	22536	5.21	0.0011179
35	23082	5.31	0.00118027
35	23628	5.41	0.0011853
35	24174	5.51	0.00107085
35	24720	5.61	0.000624845
35	25266	5.71	-0.000706046
35	25812	5.81	-0.00411503
35	26358	5.91	-0.0118313
35	26912	6.01	-0.0275733
35	27458	6.11	-0.0569895
35	28004	6.21	-0.107998
35	28550	6.31	-0.190933
35	29096	6.41	-0.318406
35	29642	6.51	-0.504839
35	30188	6.61	-0.765634
35	30734	6.71	-1.11601
35	31280	6.81	-1.56961
35	31826	6.91	-2.13691
35	32380	7.01	-2.82361
35	32926	7.11	-3.62847
35	33472	7.21	-4.54096
35	34018	7.31	-5.53946
35	34564	7.41	-6.5726
35	35110	7.51	-7.57335
35	35656	7.61	-8.48729
35	36202	7.71	-9
35	36748	7.81	-9
35	37294	7.91	-9
35	37848	8.01	-9
35	38394	8.11	-9
35	38940	8.21	-9
35	39486	8.31	-9
35	40032	8.41	-9
35	40578	8.51	-9
35	41124	8.61	-9
35	41670	8.71	-9
35	42216	8.81	-9
35	42762	8.91	-9
35	43316	9.01	-9
35	43862	9.11	-9
35	44408	9.21	-9
35	44954	9.31	-9
35	45500	9.41	-9
35	46046	9.51	-9
36	117	1.11	-0.00125786
36	663	1.21	-0.00100549
36	1209	1.31	-0.000635284
36	1755	1.41	-0.000213342
36	2301	1.51	0.000197066
36	2847	1.61	0.000541434
36	3393	1.71	0.000778091
36	3939	1.81	0.000880385
36	4485	1.91	0.000837126
36	5039	2.01	0.000651563
36	5585	2.11	0.000339254
36	6131	2.21	-7.48076e-05
36	6677	2.31	-0.000559416
36	7223	2.41	-0.00108039
36	7769	2.51	-0.00160356
36	8315	2.61	-0.00209727
36	8861	2.71	-0.00253431
36	9407	2.81	-0.00289317
36	9953	2.91	-0.00315872
36	10507	3.01	-0.00332226
36	11053	3.11	-0.00338113
36	11599	3.21	-0.00333805
36	12145	3.31	-0.00320012
36	12691	3.41	-0.00297781
36	13237	3.51	-0.00268393
36	13783	3.61	-0.0023327
36	14329	3.71	-0.00193891
36	14875	3.81	-0.00151728
36	15421	3.91	-0.00108198
36	15975	4.01	-0.00064628
36	16521	4.11	-0.000222322
36	17067	4.21	0.000178996
36	17613	4.31	0.000548097
36	18159	4.41	0.00087677
36	18705	4.51	0.00115821
36	19251	4.61	0.00138709
36	19797	4.71	0.00155956
36	20343	4.81	0.00167342
36	20889	4.91	0.00172809
36	21444	5.01	0.00172473
36	21990	5.11	0.00166621
36	22536	5.21	0.00155618
36	23082	5.31	0.00138268
36	23628	5.41	0.00102882
36	24174	5.51	2.14564e-05
36	24720	5.61	-0.00294668
36	25266	5.71	-0.0107175
36	25812	5.81	-0.0285052
36	26358	5.91	-0.0647145
36	26912	6.01	-0.131544
36	27458	6.11	-0.245179
36	28004	6.21	-0.42541
36	28550	6.31	-0.694597
36	29096	6.41	-1.07599
36	29642	6.51	-1.59147
36	30188	6.61	-2.25899
36	30734	6.71	-3.08988
36	31280	6.81	-4.08636
36	31826	6.91	-5.23963
36	32380	7.01	-6.52735
36	32926	7.11	-7.90757
36	33472	7.21	-9.32015
36	34018	7.31	-10.6687
36	34564	7.41	-11.7165
36	35110	7.51	-12.4211
36	35656	7.61	-12.7991
36	36202	7.71	-12.897
36	36748	7.81	-12.9316
36	37294	7.91	-12.9661
36	37848	8.01	-13.0007
36	38394	8.11	-13.0352
36	38940	8.21	-13.0697
36	39486	8.31	-13.1043
36	40032	8.41	-13.1388
36	40578	8.51	-13.1733
36	41124	8.61	-13.2079
36	41670	8.71	-13.2424
36	42216	8.81	-13.277
36	42762	8.91	-13.3115
36	43316	9.01	-13.346
36	43862	9.11	-13.3806
36	44408	9.21	-13.4151
36	44954	9.31	-13.4496
36	45500	9.41	-13.4842
36	46046	9.51	-22.4492
37	117	1.11	27.78
37	663	1.21	27.78
37	1209	1.31	27.7799
37	1755	1.41	27.7799
37	2301	1.51	27.7798
37	2847	1.61	27.7798
37	3393	1.71	27.7798
37	3939	1.81	27.7798
37	4485	1.91	27.7798
37	5039	2.01	27.7798
37	5585	2.11	27.7799
37	6131	2.21	27.7799
37	6677	2.31	27.7799
37	7223	2.41	27.7799
37	7769	2.51	27.7799
37	8315	2.61	27.7799
37	8861	2.71	27.7798
37	9407	2.81	27.7797
37	9953	2.91	27.7796
37	10507	3.01	27.7794
37	11053	3.11	27.7792
37	11599	3.21	27.779
37	12145	3.31	27.7787
37	12691	3.41	27.7785
37	13237	3.51	27.7782
37	13783	3.61	27.778
37	14329	3.71	27.7777
37	14875	3.81	27.7774
37	15421	3.91	27.7772
37	15975	4.01	27.777
37	16521	4.11	27.7768
37	17067	4.21	27.7767
37	17613	4.31	27.7766
37	18159	4.41	27.7765
37	18705	4.51	27.7764
37	19251	4.61	27.7764
37	19797	4.71	27.7764
37	20343	4.81	27.7764
37	20889	4.91	27.7765
37	21444	5.01	27.7766
37	21990	5.11	27.7767
37	22536	5.21	27.7768
37	23082	5.31	27.7769
37	23628	5.41	27.777
37	24174	5.51	27.7771
37	24720	5.61	27.7772
37	25266	5.71	27.7772
37	25812	5.81	27.777
37	26358	5.91	27.7762
37	26912	6.01	27.7742
37	27458	6.11	27.77
37	28004	6.21	27.7617
37	28550	6.31	27.7467
37	29096	6.41	27.721
37	29642	6.51	27.6794
37	30188	6.61	27.6153
37	30734	6.71	27.5202
37	31280	6.81	27.3846
37	31826	6.91	27.1974
37	32380	7.01	26.9469
37	32926	7.11	26.6213
37	33472	7.21	26.209
37	34018	7.31	25.7006
37	34564	7.41	25.0898
37	35110	7.51	24.377
37	35656	7.61	23.5685
37	36202	7.71	22.6819
37	36748	7.81	21.7819
37	37294	7.91	20.8819
37	37848	8.01	19.9819
37	38394	8.11	19.0819
37	38940	8.21	18.1819
37	39486	8.31	17.2819
37	40032	8.41	16.3819
37	40578	8.51	15.4819
37	41124	8.61	14.5819
37	41670	8.71	13.6819
37	42216	8.81	12.7819
37	42762	8.91	11.8819
37	43316	9.01	10.9819
37	43862	9.11	10.0819
37	44408	9.21	9.1819
37	44954	9.31	8.2819
37	45500	9.41	7.3819
37	46046	9.51	6.4819
38	117	1.11	53.9402
38	663	1.21	56.7182
38	1209	1.31	59.4962
38	1755	1.41	62.2742
38	2301	1.51	65.0522
38	2847	1.61	67.8301
38	3393	1.71	70.6081
38	3939	1.81	73.3861
38	4485	1.91	76.1641
38	5039	2.01	78.9421
38	5585	2.11	81.7201
38	6131	2.21	84.498
38	6677	2.31	87.276
38	7223	2.41	90.054
38	7769	2.51	92.832
38	8315	2.61	95.61
38	8861	2.71	98.388
38	9407	2.81	101.166
38	9953	2.91	103.944
38	10507	3.01	106.722
38	11053	3.11	109.5
38	11599	3.21	112.278
38	12145	3.31	115.056
38	12691	3.41	117.833
38	13237	3.51	120.611
38	13783	3.61	123.389
38	14329	3.71	126.167
38	14875	3.81	128.945
38	15421	3.91	131.722
38	15975	4.01	134.5
38	16521	4.11	137.278
38	17067	4.21	140.055
38	17613	4.31	142.833
38	18159	4.41	145.611
38	18705	4.51	148.388
38	19251	4.61	151.166
38	19797	4.71	153.944
38	20343	4.81	156.721
38	20889	4.91	159.499
38	21444	5.01	162.277
38	21990	5.11	165.054
38	22536	5.21	167.832
38	23082	5.31	170.61
38	23628	5.41	173.387
38	24174	5.51	176.165
38	24720	5.61	178.943
38	25266	5.71	181.721
38	25812	5.81	184.498
38	26358	5.91	187.276
38	26912	6.01	190.053
38	27458	6.11	192.831
38	28004	6.21	195.607
38	28550	6.31	198.383
38	29096	6.41	201.156
38	29642	6.51	203.926
38	30188	6.61	206.691
38	30734	6.71	209.448
[...]
85	24991	5.654896137197	7
85	25537	5.754806469487	7
85	26083	5.854872799044	7
85	26629	5.95482212517	7
85	27183	6.054797447095	7
85	27729	6.154837763965	7
85	28275	6.254865074851	7
85	28821	6.354853378755	7
85	29367	6.454893674605	7
85	29913	6.554803961261	7
85	30459	6.654818237512	7
85	31005	6.75481950209	7
85	31551	6.854820753661	7
85	32097	6.954886990836	7
85	32651	7.054823212171	7
85	33197	7.154850416182	7
85	33743	7.254890601356	7
85	34289	7.354891766168	7
85	34835	7.454892909125	7
85	35381	7.554881028804	7
85	35927	7.654882123875	7
85	36473	7.754870193112	7
85	37019	7.854897235408	7
85	37565	7.954898249789	7
85	38119	8.054847235422	7
85	38665	8.154835191625	7
85	39211	8.254836117854	7
85	39757	8.354798013677	7
85	40303	8.454824878771	7
85	40849	8.554799712928	7
85	41395	8.654826516025	7
85	41941	8.754879288013	7
85	42487	8.854893028902	7
85	43033	8.954880738759	7
85	43587	9.054829417905	7
85	44133	9.154817067007	7
85	44679	9.25480468677	7
85	45225	9.354805277963	7
85	45771	9.454857841677	7
86	1037	1.265732438288	0.10000133866
86	1583	1.365733776949	0.100001338661
86	2129	1.46573511561	0.100001338661
86	2675	1.565736454271	0.100001338661
86	3221	1.665737792931	0.10000133866
86	3761	1.76573913159	0.100001338659
86	4307	1.86574047025	0.10000133866
86	4853	1.965741808909	0.100001338659
86	5407	2.065730147566	0.099988338657
86	5953	2.165731486221	0.100001338655
86	6505	2.265732824877	0.100001338656
86	7051	2.365734163529	0.100001338652
86	7597	2.465735502179	0.10000133865
86	8143	2.565736840829	0.10000133865
86	8689	2.665738179476	0.100001338647
86	9235	2.765739518122	0.100001338646
86	9781	2.865740856765	0.100001338643
86	10327	2.965742195404	0.100001338639
86	10881	3.06573053404	0.099988338636
86	11427	3.165731872674	0.100001338634
86	11973	3.265733211303	0.100001338629
86	12519	3.36573454993	0.100001338627
86	13065	3.465735888553	0.100001338623
86	13611	3.565737227173	0.10000133862
86	14157	3.665738565789	0.100001338616
86	14703	3.765739904402	0.100001338613
86	15249	3.86574124301	0.100001338608
86	15795	3.965742581617	0.100001338607
86	16349	4.06573092022	0.099988338603
86	16895	4.165732258819	0.100001338599
86	17435	4.265733597417	0.100001338598
86	17981	4.365734936013	0.100001338596
86	18527	4.465736274608	0.100001338595
86	19073	4.565737613204	0.100001338596
86	19619	4.665738951798	0.100001338594
86	20165	4.765740290392	0.100001338594
86	20711	4.86574162899	0.100001338598
86	21257	4.965729967587	0.099988338597
86	21812	5.065731306183	0.100001338596
86	22358	5.165732644713	0.10000133853
86	22904	5.265733983027	0.100001338314
86	23450	5.365735320897	0.10000133787
86	24002	5.465736658019	0.100001337122
86	24548	5.565737994013	0.100001335994
86	25094	5.665739328422	0.100001334409
86	25640	5.765740660713	0.100001332291
86	26186	5.865741990271	0.100001329558
86	26732	5.965730316397	0.099988326126
86	27286	6.065731638321	0.100001321924
86	27832	6.165732955187	0.100001316866
86	28378	6.265734266063	0.100001310876
86	28924	6.365735569947	0.100001303884
86	29470	6.465736865761	0.100001295814
86	30016	6.565738152353	0.100001286592
86	30562	6.665739428501	0.100001276148
86	31108	6.765740692916	0.100001264415
86	31654	6.865741944242	0.100001251326
86	32200	6.96573018106	0.099988236818
86	32754	7.065731401891	0.100001220831
86	33300	7.16573260521	0.100001203319
86	33846	7.265733789461	0.100001184251
86	34392	7.365734953072	0.100001163611
86	34938	7.465736094502	0.10000114143
86	35484	7.56573721229	0.100001117788
86	36030	7.665738305073	0.100001092783
86	36576	7.765739371613	0.10000106654
86	37122	7.865740410833	0.10000103922
86	37668	7.965741421803	0.10000101097
86	38222	8.065742403733	0.10000098193
86	38768	8.165730355982	0.099987952249
86	39314	8.265731278032	0.10000092205
86	39860	8.365732169473	0.100000891441
86	40406	8.465733030008	0.100000860535
86	40952	8.565733859457	0.100000829449
86	41498	8.665734657733	0.100000798276
86	42044	8.765735424818	0.100000767085
86	42590	8.865736160755	0.100000735937
86	43136	8.965736865641	0.100000704886
86	43690	9.065737539815	0.100000674174
86	44236	9.165738183945	0.10000064413
86	44782	9.265738798735	0.10000061479
86	45328	9.365739384956	0.100000586221
86	45874	9.465739943698	0.100000558742
87	1037	1.265732438288	5
87	1583	1.365733776949	5
87	2129	1.46573511561	5
87	2675	1.565736454271	5
87	3221	1.665737792931	5
87	3761	1.76573913159	5
87	4307	1.86574047025	5
87	4853	1.965741808909	5
87	5407	2.065730147566	5
87	5953	2.165731486221	5
87	6505	2.265732824877	5
87	7051	2.365734163529	5
87	7597	2.465735502179	5
87	8143	2.565736840829	5
87	8689	2.665738179476	5
87	9235	2.765739518122	5
87	9781	2.865740856765	5
87	10327	2.965742195404	5
87	10881	3.06573053404	5
87	11427	3.165731872674	5
87	11973	3.265733211303	5
87	12519	3.36573454993	5
87	13065	3.465735888553	5
87	13611	3.565737227173	5
87	14157	3.665738565789	5
87	14703	3.765739904402	5
87	15249	3.86574124301	5
87	15795	3.965742581617	5
87	16349	4.06573092022	5
87	16895	4.165732258819	5
87	17435	4.265733597417	5
87	17981	4.365734936013	5
87	18527	4.465736274608	5
87	19073	4.565737613204	5
87	19619	4.665738951798	5
87	20165	4.765740290392	5
87	20711	4.86574162899	5
87	21257	4.965729967587	5
87	21812	5.065731306183	5
87	22358	5.165732644713	5
87	22904	5.265733983027	5
87	23450	5.365735320897	5
87	24002	5.465736658019	5
87	24548	5.565737994013	5
87	25094	5.665739328422	5
87	25640	5.765740660713	5
87	26186	5.865741990271	5
87	26732	5.965730316397	5
87	27286	6.065731638321	5
87	27832	6.165732955187	5
87	28378	6.265734266063	5
87	28924	6.365735569947	5
87	29470	6.465736865761	5
87	30016	6.565738152353	5
87	30562	6.665739428501	5
87	31108	6.765740692916	5
87	31654	6.865741944242	5
87	32200	6.96573018106	5
87	32754	7.065731401891	5
87	33300	7.16573260521	5
87	33846	7.265733789461	5
87	34392	7.365734953072	5
87	34938	7.465736094502	5
87	35484	7.56573721229	5
87	36030	7.665738305073	5
87	36576	7.765739371613	5
87	37122	7.865740410833	5
87	37668	7.965741421803	5
87	38222	8.065742403733	5
87	38768	8.165730355982	5
87	39314	8.265731278032	5
87	39860	8.365732169473	5
87	40406	8.465733030008	5
87	40952	8.565733859457	5
87	41498	8.665734657733	5
87	42044	8.765735424818	5
87	42590	8.865736160755	5
87	43136	8.965736865641	5
87	43690	9.065737539815	5
87	44236	9.165738183945	5
87	44782	9.265738798735	5
87	45328	9.365739384956	5
87	45874	9.465739943698	5
88	1101	1.303543486088	0.10000133866
88	1647	1.403544824749	0.100001338661
88	2193	1.50354616341	0.100001338661
88	2739	1.603547502071	0.100001338661
88	3285	1.703535840731	0.09998833866
88	3831	1.803537179392	0.100001338661
88	4377	1.903538518052	0.10000133866
88	4931	2.003539856711	0.100001338659
88	5477	2.103541195368	0.100001338657
88	6023	2.203542534023	0.100001338655
88	6569	2.303543872678	0.100001338655
88	7115	2.40354521133	0.100001338652
88	7661	2.50354654998	0.10000133865
88	8207	2.60354788863	0.10000133865
88	8753	2.703536227277	0.099988338647
88	9299	2.803537565922	0.100001338645
88	9845	2.903538904565	0.100001338643
88	10399	3.003540243204	0.100001338639
88	10945	3.103541581839	0.100001338635
88	11491	3.203542920472	0.100001338633
88	12037	3.303544259102	0.10000133863
88	12583	3.403545597729	0.100001338627
88	13129	3.503546936352	0.100001338623
88	13675	3.603548274972	0.10000133862
88	14221	3.703536613587	0.099988338615
88	14767	3.8035379522	0.100001338613
88	15313	3.903539290808	0.100001338608
88	15867	4.003540629415	0.100001338607
88	16413	4.103541968019	0.100001338604
88	16959	4.203543306619	0.1000013386
88	17505	4.303544645218	0.100001338599
88	18051	4.403545983814	0.100001338596
88	18597	4.503547322409	0.100001338595
88	19143	4.603535661005	0.099988338596
88	19689	4.7035369996	0.100001338595
88	20235	4.803538338195	0.100001338595
88	20781	4.903539676792	0.100001338597
88	21336	5.003541015389	0.100001338597
88	21882	5.103542353986	0.100001338597
88	22428	5.203543692517	0.100001338531
88	22974	5.30354503083	0.100001338313
88	23520	5.4035463687	0.10000133787
88	24066	5.503547705821	0.100001337121
88	24612	5.603536041815	0.099988335994
88	25164	5.703537376224	0.100001334409
88	25710	5.803538708512	0.100001332288
88	26256	5.90354003806	0.100001329548
88	26810	6.00354136417	0.10000132611
88	27356	6.103542686061	0.100001321891
88	27902	6.203544002866	0.100001316805
88	28448	6.303545313645	0.100001310779
88	28994	6.403546617373	0.100001303728
88	29540	6.503547912954	0.100001295581
88	30086	6.603536199213	0.099988286259
88	30632	6.703537474902	0.100001275689
88	31178	6.80353873871	0.100001263808
88	31724	6.903539989259	0.100001250549
88	32278	7.003541225114	0.100001235855
88	32824	7.103542444787	0.100001219673
88	33370	7.203543646755	0.100001201968
88	33916	7.30354482948	0.100001182725
88	34462	7.403545991438	0.100001161958
88	35008	7.503547131168	0.10000113973
88	35554	7.603548247284	0.100001116116
88	36100	7.703536338489	0.099988091205
88	36646	7.803537403576	0.100001065087
88	37192	7.903538441441	0.100001037865
88	37746	8.003539451123	0.100001009682
88	38292	8.103540431798	0.100000980675
88	38838	8.2035413828	0.100000951002
88	39384	8.303542303604	0.100000920804
88	39930	8.403543193797	0.100000890193
88	40476	8.503544053085	0.100000859288
88	41022	8.603544881287	0.100000828202
88	41568	8.703545678316	0.100000797029
88	42114	8.803546444153	0.100000765837
88	42660	8.903547178843	0.10000073469
88	43214	9.003547882482	0.100000703639
88	43760	9.103548555409	0.100000672927
88	44306	9.203536198291	0.099987642882
88	44852	9.303536811835	0.100000613544
88	45398	9.403537396808	0.100000584973
88	45944	9.503537953591	0.100000556783
89	1101	1.303543486088	4
89	1647	1.403544824749	4
89	2193	1.50354616341	4
89	2739	1.603547502071	4
89	3285	1.703535840731	4
89	3831	1.803537179392	4
89	4377	1.903538518052	4
89	4931	2.003539856711	4
89	5477	2.103541195368	4
89	6023	2.203542534023	4
89	6569	2.303543872678	4
89	7115	2.40354521133	4
89	7661	2.50354654998	4
89	8207	2.60354788863	4
89	8753	2.703536227277	4
89	9299	2.803537565922	4
89	9845	2.903538904565	4
89	10399	3.003540243204	4
89	10945	3.103541581839	4
89	11491	3.203542920472	4
89	12037	3.303544259102	4
89	12583	3.403545597729	4
89	13129	3.503546936352	4
89	13675	3.603548274972	4
89	14221	3.703536613587	4
89	14767	3.8035379522	4
89	15313	3.903539290808	4
89	15867	4.003540629415	4
89	16413	4.103541968019	4
89	16959	4.203543306619	4
89	17505	4.303544645218	4
89	18051	4.403545983814	4
89	18597	4.503547322409	4
89	19143	4.603535661005	4
89	19689	4.7035369996	4
89	20235	4.803538338195	4
89	20781	4.903539676792	4
89	21336	5.003541015389	4
89	21882	5.103542353986	4
89	22428	5.203543692517	4
89	22974	5.30354503083	4
89	23520	5.4035463687	4
89	24066	5.503547705821	4
89	24612	5.603536041815	4
89	25164	5.703537376224	4
89	25710	5.803538708512	4
89	26256	5.90354003806	4
89	26810	6.00354136417	4
89	27356	6.103542686061	4
89	27902	6.203544002866	4
89	28448	6.303545313645	4
89	28994	6.403546617373	4
89	29540	6.503547912954	4
89	30086	6.603536199213	4
89	30632	6.703537474902	4
89	31178	6.80353873871	4
89	31724	6.903539989259	4
89	32278	7.003541225114	4
89	32824	7.103542444787	4
89	33370	7.203543646755	4
89	33916	7.30354482948	4
89	34462	7.403545991438	4
89	35008	7.503547131168	4
89	35554	7.603548247284	4
89	36100	7.703536338489	4
89	36646	7.803537403576	4
89	37192	7.903538441441	4
89	37746	8.003539451123	4
89	38292	8.103540431798	4
89	38838	8.2035413828	4
89	39384	8.303542303604	4
89	39930	8.403543193797	4
89	40476	8.503544053085	4
89	41022	8.603544881287	4
89	41568	8.703545678316	4
89	42114	8.803546444153	4
89	42660	8.903547178843	4
89	43214	9.003547882482	4
89	43760	9.103548555409	4
89	44306	9.203536198291	4
89	44852	9.303536811835	4
89	45398	9.403537396808	4
89	45944	9.503537953591	4
90	1173	1.305149581721	0.100001338661
90	1719	1.405150920382	0.100001338661
90	2265	1.505139259043	0.099988338661
90	2811	1.605140597704	0.100001338661
90	3357	1.705141936363	0.100001338659
90	3903	1.805143275024	0.100001338661
90	4449	1.905144613684	0.10000133866
90	5003	2.005145952342	0.100001338658
90	5549	2.105147290999	0.100001338657
90	6095	2.205148629655	0.100001338656
90	6641	2.305149968309	0.100001338654
90	7187	2.405151306961	0.100001338652
90	7733	2.505139645612	0.099988338651
90	8279	2.605140984262	0.10000133865
90	8825	2.705142322909	0.100001338647
90	9371	2.805143661553	0.100001338644
90	9917	2.905145000195	0.100001338642
90	10471	3.005146338834	0.100001338639
90	11017	3.10514767747	0.100001338636
90	11563	3.205149016103	0.100001338633
90	12109	3.305150354732	0.100001338629
90	12655	3.405138693359	0.099988338627
90	13201	3.50514003198	0.100001338621
90	13747	3.6051413706	0.10000133862
90	14293	3.705142709216	0.100001338616
90	14839	3.805144047827	0.100001338611
90	15385	3.905145386435	0.100001338608
90	15939	4.005146725041	0.100001338606
90	16485	4.105148063645	0.100001338604
90	17031	4.205149402243	0.100001338598
90	17577	4.305150740842	0.100001338599
90	18123	4.405139079437	0.099988338595
90	18669	4.505140418031	0.100001338594
90	19215	4.605141756627	0.100001338596
90	19761	4.705143095221	0.100001338594
90	20307	4.805144433816	0.100001338595
90	20853	4.905145772414	0.100001338598
90	21408	5.00514711101	0.100001338596
90	21954	5.105148449607	0.100001338597
90	22500	5.205149788138	0.100001338531
90	23046	5.305151126452	0.100001338314
90	23592	5.405139464323	0.099988337871
90	24138	5.505140801445	0.100001337122
90	24684	5.605142137439	0.100001335994
90	25230	5.705143471848	0.100001334409
90	25776	5.805144804136	0.100001332288
90	26322	5.905146133685	0.100001329549
90	26876	6.005147459795	0.10000132611
90	27422	6.105148781684	0.100001321889
90	27968	6.205150098486	0.100001316802
90	28514	6.305138409258	0.099988310772
90	29060	6.405139712971	0.100001303713
90	29606	6.505141008528	0.100001295557
90	30152	6.605142294744	0.100001286216
90	30698	6.705143570365	0.100001275621
90	31244	6.805144834068	0.100001263703
90	31790	6.90514608446	0.100001250392
90	32344	7.005147320087	0.100001235627
90	32890	7.105148539442	0.100001219355
90	33436	7.205149740978	0.100001201536
90	33982	7.305150923128	0.10000118215
90	34528	7.405139084344	0.099988161216
90	35074	7.505140223135	0.100001138791
90	35620	7.605141338095	0.10000111496
90	36166	7.705142427911	0.100001089816
90	36712	7.805143491377	0.100001063466
90	37258	7.905144527409	0.100001036032
90	37812	8.00514553507	0.100001007661
90	38358	8.105146513567	0.100000978497
90	38904	8.205147462264	0.100000948697
90	39450	8.305148380671	0.100000918407
90	39996	8.405149268409	0.100000887738
90	40542	8.505150125213	0.100000856804
90	41088	8.605150950927	0.100000825714
90	41634	8.705138745468	0.099987794541
90	42180	8.805139508818	0.10000076335
90	42726	8.90514024102	0.100000732202
90	43280	9.005140942171	0.100000701151
90	43826	9.105141612609	0.100000670438
90	44372	9.205142253004	0.100000640395
90	44918	9.30514286406	0.100000611056
90	45464	9.405143446545	0.100000582485
90	46010	9.505144000841	0.100000554296
91	1173	1.305149581721	6
91	1719	1.405150920382	6
91	2265	1.505139259043	6
91	2811	1.605140597704	6
91	3357	1.705141936363	6
91	3903	1.805143275024	6
91	4449	1.905144613684	6
91	5003	2.005145952342	6
91	5549	2.105147290999	6
91	6095	2.205148629655	6
91	6641	2.305149968309	6
91	7187	2.405151306961	6
91	7733	2.505139645612	6
91	8279	2.605140984262	6
91	8825	2.705142322909	6
91	9371	2.805143661553	6
91	9917	2.905145000195	6
91	10471	3.005146338834	6
91	11017	3.10514767747	6
91	11563	3.205149016103	6
91	12109	3.305150354732	6
91	12655	3.405138693359	6
91	13201	3.50514003198	6
91	13747	3.6051413706	6
91	14293	3.705142709216	6
91	14839	3.805144047827	6
91	15385	3.905145386435	6
91	15939	4.005146725041	6
91	16485	4.105148063645	6
91	17031	4.205149402243	6
91	17577	4.305150740842	6
91	18123	4.405139079437	6
91	18669	4.505140418031	6
91	19215	4.605141756627	6
91	19761	4.705143095221	6
91	20307	4.805144433816	6
91	20853	4.905145772414	6
91	21408	5.00514711101	6
91	21954	5.105148449607	6
91	22500	5.205149788138	6
91	23046	5.305151126452	6
91	23592	5.405139464323	6
91	24138	5.505140801445	6
91	24684	5.605142137439	6
91	25230	5.705143471848	6
91	25776	5.805144804136	6
91	26322	5.905146133685	6
91	26876	6.005147459795	6
91	27422	6.105148781684	6
91	27968	6.205150098486	6
91	28514	6.305138409258	6
91	29060	6.405139712971	6
91	29606	6.505141008528	6
91	30152	6.605142294744	6
91	30698	6.705143570365	6
91	31244	6.805144834068	6
91	31790	6.90514608446	6
91	32344	7.005147320087	6
91	32890	7.105148539442	6
91	33436	7.205149740978	6
91	33982	7.305150923128	6
91	34528	7.405139084344	6
91	35074	7.505140223135	6
91	35620	7.605141338095	6
91	36166	7.705142427911	6
91	36712	7.805143491377	6
91	37258	7.905144527409	6
91	37812	8.00514553507	6
91	38358	8.105146513567	6
91	38904	8.205147462264	6
91	39450	8.305148380671	6
91	39996	8.405149268409	6
91	40542	8.505150125213	6
91	41088	8.605150950927	6
91	41634	8.705138745468	6
91	42180	8.805139508818	6
91	42726	8.90514024102	6
91	43280	9.005140942171	6
91	43826	9.105141612609	6
91	44372	9.205142253004	6
91	44918	9.30514286406	6
91	45464	9.405143446545	6
91	46010	9.505144000841	6
92	4894	2	0
92	10362	3	0
92	15830	4	0
92	21299	5	0
92	26767	6	0
92	32235	7	0
92	37703	8	0
92	43171	9	0
93	4894	2	0.021849
93	10362	3	0.02497
93	15830	4	0.02497
93	21299	5	0.02497
93	26767	6	0.02497
93	32235	7	0.02497
93	37703	8	0.02497
93	43171	9	0.02497
94	4894	2	0
94	10362	3	0
94	15830	4	0
94	21299	5	0
94	26767	6	0
94	32235	7	0
94	37703	8	0
94	43171	9	0
95	4895	2	1
95	10363	3	1
95	15831	4	1
95	21300	5	1
95	26768	6	1
95	32236	7	1
95	37704	8	1
95	43172	9	1
96	4895	2	0.021849
96	10363	3	0.02497
96	15831	4	0.02497
96	21300	5	0.02497
96	26768	6	0.02497
96	32236	7	0.02497
96	37704	8	0.02497
96	43172	9	0.02497
97	4895	2	0
97	10363	3	0
97	15831	4	0
97	21300	5	0
97	26768	6	0
97	32236	7	0
97	37704	8	0
97	43172	9	0
98	4896	2	2
98	10364	3	2
98	15832	4	2
98	21301	5	2
98	26769	6	2
98	32237	7	2
98	37705	8	2
98	43173	9	2
99	4896	2	0.021849
99	10364	3	0.02497
99	15832	4	0.02497
99	21301	5	0.02497
99	26769	6	0.02497
99	32237	7	0.02497
99	37705	8	0.02497
99	43173	9	0.02497
100	4896	2	0
100	10364	3	0
100	15832	4	0
100	21301	5	0
100	26769	6	0
100	32237	7	0
100	37705	8	0
100	43173	9	0
101	4897	2	3
101	10365	3	3
101	15833	4	3
101	21302	5	3
101	26770	6	3
101	32238	7	3
101	37706	8	3
101	43174	9	3
102	4897	2	0.021848
102	10365	3	0.02497
102	15833	4	0.02497
102	21302	5	0.02497
102	26770	6	0.02497
102	32238	7	0.02497
102	37706	8	0.02497
102	43174	9	0.02497
103	4897	2	0
103	10365	3	0
103	15833	4	0
103	21302	5	0
103	26770	6	0
103	32238	7	0
103	37706	8	0
103	43174	9	0
104	4898	2	4
104	10366	3	4
104	15834	4	4
104	21303	5	4
104	26771	6	4
104	32239	7	4
104	37707	8	4
104	43175	9	4
105	4898	2	0.021849
105	10366	3	0.02497
105	15834	4	0.02497
105	21303	5	0.02497
105	26771	6	0.02497
105	32239	7	0.02497
105	37707	8	0.02497
105	43175	9	0.02497
106	4898	2	0
106	10366	3	0
106	15834	4	0
106	21303	5	0
106	26771	6	0
106	32239	7	0
106	37707	8	0
106	43175	9	0
107	4899	2	5
107	10367	3	5
107	15835	4	5
107	21304	5	5
107	26772	6	5
107	32240	7	5
107	37708	8	5
107	43176	9	5
108	4899	2	0.021848
108	10367	3	0.02497
108	15835	4	0.02497
108	21304	5	0.02497
108	26772	6	0.02497
108	32240	7	0.02497
108	37708	8	0.02497
108	43176	9	0.02497
109	4899	2	0
109	10367	3	0
109	15835	4	0
109	21304	5	0
109	26772	6	0
109	32240	7	0
109	37708	8	0
109	43176	9	0
110	4900	2	6
110	10368	3	6
110	15836	4	6
110	21305	5	6
110	26773	6	6
110	32241	7	6
110	37709	8	6
110	43177	9	6
111	4900	2	0.021849
111	10368	3	0.02497
111	15836	4	0.02497
111	21305	5	0.02497
111	26773	6	0.02497
111	32241	7	0.02497
111	37709	8	0.02497
111	43177	9	0.02497
112	4900	2	0
112	10368	3	0
112	15836	4	0
112	21305	5	0
112	26773	6	0
112	32241	7	0
112	37709	8	0
112	43177	9	0
113	4901	2	7
113	10369	3	7
113	15837	4	7
113	21306	5	7
113	26774	6	7
113	32242	7	7
113	37710	8	7
113	43178	9	7
114	4901	2	0.021849
114	10369	3	0.02497
114	15837	4	0.02497
114	21306	5	0.02497
114	26774	6	0.02497
114	32242	7	0.02497
114	37710	8	0.02497
114	43178	9	0.02497
115	4901	2	0
115	10369	3	0
115	15837	4	0
115	21306	5	0
115	26774	6	0
115	32242	7	0
115	37710	8	0
115	43178	9	0

