version 3
run EngineTest-0-20240816-19:37:24-10375
attr configname EngineTest
attr datetime 20240816-19:37:24
attr datetimef 20240816-193724
attr experiment EngineTest
attr inifile omnetpp.ini
attr iterationvars "$vehicle=0, $model=\"alfa-147\", $useLaunchd=false, $nCars=8, $platoonSize=8, $nLanes=1, $ploegH=0.5, $beaconInterval=0.1, $priority=4, $packetSize=200"
attr iterationvarsd vehicle=0/model=alfa-147/useLaunchd=false/nCars=8/platoonSize=8/nLanes=1/ploegH=0.5/beaconInterval=0.1/priority=4/packetSize=200
attr iterationvarsf vehicle=0,model=alfa-147,useLaunchd=false,nCars=8,platoonSize=8,nLanes=1,ploegH=0.5,beaconInterval=0.1,priority=4,packetSize=200-
attr measurement "$vehicle=0, $model=\"alfa-147\", $useLaunchd=false, $nCars=8, $platoonSize=8, $nLanes=1, $ploegH=0.5, $beaconInterval=0.1, $priority=4, $packetSize=200"
attr network Engine
attr processid 10375
attr repetition 0
attr replication #0
attr resultdir results
attr runnumber 0
attr seedset 0
itervar beaconInterval 0.1
itervar model "\"alfa-147\""
itervar nCars 8
itervar nLanes 1
itervar packetSize 200
itervar platoonSize 8
itervar ploegH 0.5
itervar priority 4
itervar useLaunchd false
itervar vehicle 0
config image-path ../../../veins/images
config repeat 1
config *.manager.command "\"sumo-gui\""
config *.manager.ignoreGuiCommands false
config *.node[*].scenario_type "\"AccelerateAndBrakeScenario\""
config sim-time-limit "100 s"
config *.node[*].scenario.acceleration "20 mpsps"
config *.node[*].scenario.brakingDeceleration "20 mpsps"
config *.node[*].scenario.startAccelerating "5 s"
config *.node[*].scenario.startBraking "75 s"
config **.dummyvehicle 0
config *.node[*].scenario.vehicleType "\"alfa-147\""
config output-vector-file results/EngineTest_0_0.vec
config output-scalar-file results/EngineTest_0_0.sca
config cmdenv-express-mode true
config cmdenv-autoflush true
config cmdenv-status-frequency 10s
config num-rngs 6
config network Engine
config debug-on-errors true
config print-undisposed true
config *.playgroundSizeX 65000m
config *.playgroundSizeY 25000m
config *.playgroundSizeZ 50m
config sim-time-limit "120 s"
config *.annotations.draw false
config *.obstacles.debug false
config *.world.useTorus false
config *.world.use2D false
config *.manager.updateInterval 0.01s
config *.manager.host "\"localhost\""
config *.manager.moduleType "\"org.car2x.plexe.PlatoonCar\""
config *.manager.moduleName "\"node\""
config *.manager.moduleDisplayString "\"\""
config *.manager.autoShutdown true
config *.manager.margin 25
config *.connectionManager.sendDirect true
config *.connectionManager.maxInterfDist 2600m
config *.connectionManager.drawMaxIntfDist false
config *.**.nic.mac1609_4.useServiceChannel false
config *.**.nic.mac1609_4.txPower 100mW
config *.**.nic.mac1609_4.bitrate 6Mbps
config *.**.nic.mac1609_4.useAcks true
config *.**.nic.mac1609_4.ackErrorRate 0.0
config *.**.nic.mac1609_4.frameErrorRate 0.0
config *.**.nic.phy80211p.minPowerLevel -94dBm
config *.**.nic.phy80211p.maxTXPower 100mW
config *.**.nic.phy80211p.useNoiseFloor true
config *.**.nic.phy80211p.noiseFloor -95dBm
config *.**.nic.phy80211p.decider "xmldoc(\"config.xml\")"
config *.**.nic.phy80211p.analogueModels "xmldoc(\"config.xml\")"
config *.**.nic.phy80211p.usePropagationDelay true
config *.node[*].mobility.x 0
config *.node[*].mobility.y 0
config *.node[*].mobility.z 1.895
config seed-set 0
config **.seed 0
config *.node[*].prot.rng-0 2
config *.node[*].appl.rng-0 3
config *.node[*].scenario.rng-0 4
config **.traffic.rng-0 5
config *.manager.configFile "\"./sumocfg/freeway.sumo.cfg\""
config *.manager.launchConfig "xmldoc(\"./sumocfg/freeway.launchd.xml\")"
config *.useLaunchd false
config *.node[*].scenario.vehicleFile "false ? \"./vehicles.xml\" : \"./sumocfg/vehicles.xml\""
config **.numberOfCars 8
config **.numberOfCarsPerPlatoon 8
config **.numberOfLanes 1
config *.node[*].helper_type "\"PositionHelper\""
config *.node[*].helper.nLanes 1
config *.node[*].helper.platoonSize 8
config *.node[*].helper.nCars 8
config *.node[*].scenario.engineTau "0.5 s"
config *.node[*].scenario.ploegH 0.5s
config *.node[*].scenario.ploegKp 0.2
config *.node[*].scenario.ploegKd 0.7
config *.node[*].scenario.useRealisticEngine true
config *.node[*].scenario.accHeadway "1 s"
config *.node[*].scenario.leaderHeadway "1 s"
config *.node[*].scenario.leaderSpeed "0 kmph"
config *.node[*].appl_type "\"SimplePlatooningApp\""
config *.node[*].appl.*.scalar-recording true
config *.node[*].appl.*.vector-recording true
config *.node[*].protocol_type "\"SimplePlatooningBeaconing\""
config *.node[*].prot.*.scalar-recording true
config *.node[*].prot.*.vector-recording true
config *.node[*].prot.beaconingInterval 0.1s
config *.node[*].prot.priority 4
config *.node[*].prot.packetSize 200
config *.node[*].prot.useControllerAcceleration true
config **.traffic_type "\"PlatoonsTrafficManager\""
config **.traffic.platoonInsertTime "1 s"
config **.traffic.platoonInsertSpeed "0 kmph"
config **.traffic.nCars 1
config **.traffic.platoonSize 1
config **.traffic.nLanes 1
config **.traffic.platooningVType "\"vtypeauto\""
config **.traffic.platoonInsertDistance "1 m"
config **.traffic.platoonInsertHeadway "1 s"
config **.traffic.platoonLeaderHeadway "1 s"
config **.traffic.controller "\"ACC\""
config **.scalar-recording false
config **.vector-recording false

vector 0 Engine.node[0].appl distance ETV
vector 1 Engine.node[0].appl relativeSpeed ETV
vector 2 Engine.node[0].appl nodeId ETV
vector 3 Engine.node[0].appl acceleration ETV
vector 4 Engine.node[0].appl controllerAcceleration ETV
vector 5 Engine.node[0].appl speed ETV
vector 6 Engine.node[0].appl posx ETV
vector 7 Engine.node[0].appl posy ETV
vector 8 Engine.node[0].prot nodeId ETV
vector 9 Engine.node[0].prot busyTime ETV
vector 10 Engine.node[0].prot collisions ETV
0	113	1.11	-1
0	134	1.21	-1
0	155	1.31	-1
0	176	1.41	-1
0	197	1.51	-1
0	218	1.61	-1
0	239	1.71	-1
0	260	1.81	-1
0	281	1.91	-1
0	303	2.01	-1
0	324	2.11	-1
0	345	2.21	-1
0	366	2.31	-1
0	387	2.41	-1
0	408	2.51	-1
0	429	2.61	-1
0	450	2.71	-1
0	471	2.81	-1
0	492	2.91	-1
0	514	3.01	-1
0	535	3.11	-1
0	556	3.21	-1
0	577	3.31	-1
0	598	3.41	-1
0	619	3.51	-1
0	640	3.61	-1
0	661	3.71	-1
0	682	3.81	-1
0	703	3.91	-1
0	725	4.01	-1
0	746	4.11	-1
0	767	4.21	-1
0	788	4.31	-1
0	809	4.41	-1
0	830	4.51	-1
0	851	4.61	-1
0	872	4.71	-1
0	893	4.81	-1
0	914	4.91	-1
0	937	5.01	-1
0	958	5.11	-1
0	979	5.21	-1
0	1000	5.31	-1
0	1021	5.41	-1
0	1042	5.51	-1
0	1063	5.61	-1
0	1084	5.71	-1
0	1105	5.81	-1
0	1126	5.91	-1
0	1148	6.01	-1
0	1169	6.11	-1
0	1190	6.21	-1
0	1211	6.31	-1
0	1232	6.41	-1
0	1253	6.51	-1
0	1274	6.61	-1
0	1295	6.71	-1
0	1316	6.81	-1
0	1337	6.91	-1
0	1359	7.01	-1
0	1380	7.11	-1
0	1401	7.21	-1
0	1422	7.31	-1
0	1443	7.41	-1
0	1464	7.51	-1
0	1485	7.61	-1
0	1506	7.71	-1
0	1527	7.81	-1
0	1548	7.91	-1
0	1570	8.01	-1
0	1591	8.11	-1
0	1612	8.21	-1
0	1633	8.31	-1
0	1654	8.41	-1
0	1675	8.51	-1
0	1696	8.61	-1
0	1717	8.71	-1
0	1738	8.81	-1
0	1759	8.91	-1
0	1781	9.01	-1
0	1802	9.11	-1
0	1823	9.21	-1
0	1844	9.31	-1
0	1865	9.41	-1
0	1886	9.51	-1
0	1907	9.61	-1
0	1928	9.71	-1
0	1949	9.81	-1
0	1970	9.91	-1
0	1992	10.01	-1
0	2013	10.11	-1
0	2034	10.21	-1
0	2055	10.31	-1
0	2076	10.41	-1
0	2097	10.51	-1
0	2118	10.61	-1
0	2139	10.71	-1
0	2160	10.81	-1
0	2181	10.91	-1
0	2203	11.01	-1
0	2224	11.11	-1
0	2245	11.21	-1
0	2266	11.31	-1
0	2287	11.41	-1
0	2308	11.51	-1
0	2329	11.61	-1
0	2350	11.71	-1
0	2371	11.81	-1
0	2392	11.91	-1
0	2414	12.01	-1
0	2435	12.11	-1
0	2456	12.21	-1
0	2477	12.31	-1
0	2498	12.41	-1
0	2519	12.51	-1
0	2540	12.61	-1
0	2561	12.71	-1
0	2582	12.81	-1
0	2603	12.91	-1
0	2625	13.01	-1
0	2646	13.11	-1
0	2667	13.21	-1
0	2688	13.31	-1
0	2709	13.41	-1
0	2730	13.51	-1
0	2751	13.61	-1
0	2772	13.71	-1
0	2793	13.81	-1
0	2814	13.91	-1
0	2836	14.01	-1
0	2857	14.11	-1
0	2878	14.21	-1
0	2899	14.31	-1
0	2920	14.41	-1
0	2941	14.51	-1
0	2962	14.61	-1
0	2983	14.71	-1
0	3004	14.81	-1
0	3025	14.91	-1
0	3047	15.01	-1
0	3068	15.11	-1
0	3089	15.21	-1
0	3110	15.31	-1
0	3131	15.41	-1
0	3152	15.51	-1
0	3173	15.61	-1
0	3194	15.71	-1
0	3215	15.81	-1
0	3236	15.91	-1
0	3258	16.01	-1
0	3279	16.11	-1
0	3300	16.21	-1
0	3321	16.31	-1
0	3342	16.41	-1
0	3363	16.51	-1
0	3384	16.61	-1
0	3405	16.71	-1
0	3426	16.81	-1
0	3447	16.91	-1
0	3469	17.01	-1
0	3490	17.11	-1
0	3511	17.21	-1
0	3532	17.31	-1
0	3553	17.41	-1
0	3574	17.51	-1
0	3595	17.61	-1
0	3616	17.71	-1
0	3637	17.81	-1
0	3658	17.91	-1
0	3680	18.01	-1
0	3701	18.11	-1
0	3722	18.21	-1
0	3743	18.31	-1
0	3764	18.41	-1
0	3785	18.51	-1
0	3806	18.61	-1
0	3827	18.71	-1
0	3848	18.81	-1
0	3869	18.91	-1
0	3891	19.01	-1
0	3912	19.11	-1
0	3933	19.21	-1
0	3954	19.31	-1
0	3975	19.41	-1
0	3996	19.51	-1
0	4017	19.61	-1
0	4038	19.71	-1
0	4059	19.81	-1
0	4080	19.91	-1
0	4102	20.01	-1
0	4123	20.11	-1
0	4144	20.21	-1
0	4165	20.31	-1
0	4186	20.41	-1
0	4207	20.51	-1
0	4228	20.61	-1
0	4249	20.71	-1
0	4270	20.81	-1
0	4291	20.91	-1
0	4313	21.01	-1
0	4334	21.11	-1
0	4355	21.21	-1
0	4376	21.31	-1
0	4397	21.41	-1
0	4418	21.51	-1
0	4439	21.61	-1
0	4460	21.71	-1
0	4481	21.81	-1
0	4502	21.91	-1
0	4524	22.01	-1
0	4545	22.11	-1
0	4566	22.21	-1
0	4587	22.31	-1
0	4608	22.41	-1
0	4629	22.51	-1
0	4650	22.61	-1
0	4671	22.71	-1
0	4692	22.81	-1
0	4713	22.91	-1
0	4735	23.01	-1
0	4756	23.11	-1
0	4777	23.21	-1
0	4798	23.31	-1
0	4819	23.41	-1
0	4840	23.51	-1
0	4861	23.61	-1
0	4882	23.71	-1
0	4903	23.81	-1
0	4924	23.91	-1
0	4946	24.01	-1
0	4967	24.11	-1
0	4988	24.21	-1
0	5009	24.31	-1
0	5030	24.41	-1
0	5051	24.51	-1
0	5072	24.61	-1
0	5093	24.71	-1
0	5114	24.81	-1
0	5135	24.91	-1
0	5157	25.01	-1
0	5178	25.11	-1
0	5199	25.21	-1
0	5220	25.31	-1
0	5241	25.41	-1
0	5262	25.51	-1
0	5283	25.61	-1
0	5304	25.71	-1
0	5325	25.81	-1
0	5346	25.91	-1
0	5368	26.01	-1
0	5389	26.11	-1
0	5410	26.21	-1
0	5431	26.31	-1
0	5452	26.41	-1
0	5473	26.51	-1
0	5494	26.61	-1
0	5515	26.71	-1
0	5536	26.81	-1
0	5557	26.91	-1
0	5579	27.01	-1
0	5600	27.11	-1
0	5621	27.21	-1
0	5642	27.31	-1
0	5663	27.41	-1
0	5684	27.51	-1
0	5705	27.61	-1
0	5726	27.71	-1
0	5747	27.81	-1
0	5768	27.91	-1
0	5790	28.01	-1
0	5811	28.11	-1
0	5832	28.21	-1
0	5853	28.31	-1
0	5874	28.41	-1
0	5895	28.51	-1
0	5916	28.61	-1
0	5937	28.71	-1
0	5958	28.81	-1
0	5979	28.91	-1
0	6001	29.01	-1
0	6022	29.11	-1
0	6043	29.21	-1
0	6064	29.31	-1
0	6085	29.41	-1
0	6106	29.51	-1
0	6127	29.61	-1
0	6148	29.71	-1
0	6169	29.81	-1
0	6190	29.91	-1
0	6212	30.01	-1
0	6233	30.11	-1
0	6254	30.21	-1
0	6275	30.31	-1
0	6296	30.41	-1
0	6317	30.51	-1
0	6338	30.61	-1
0	6359	30.71	-1
0	6380	30.81	-1
0	6401	30.91	-1
0	6423	31.01	-1
0	6444	31.11	-1
0	6465	31.21	-1
0	6486	31.31	-1
0	6507	31.41	-1
0	6528	31.51	-1
0	6549	31.61	-1
0	6570	31.71	-1
0	6591	31.81	-1
0	6612	31.91	-1
0	6634	32.01	-1
0	6655	32.11	-1
0	6676	32.21	-1
0	6697	32.31	-1
0	6718	32.41	-1
0	6739	32.51	-1
0	6760	32.61	-1
0	6781	32.71	-1
0	6802	32.81	-1
0	6823	32.91	-1
0	6845	33.01	-1
0	6866	33.11	-1
0	6887	33.21	-1
0	6908	33.31	-1
0	6929	33.41	-1
0	6950	33.51	-1
0	6971	33.61	-1
0	6992	33.71	-1
0	7013	33.81	-1
0	7034	33.91	-1
0	7056	34.01	-1
0	7077	34.11	-1
0	7098	34.21	-1
0	7119	34.31	-1
0	7140	34.41	-1
0	7161	34.51	-1
0	7182	34.61	-1
0	7203	34.71	-1
0	7224	34.81	-1
0	7245	34.91	-1
0	7267	35.01	-1
0	7288	35.11	-1
0	7309	35.21	-1
0	7330	35.31	-1
0	7351	35.41	-1
0	7372	35.51	-1
0	7393	35.61	-1
0	7414	35.71	-1
0	7435	35.81	-1
0	7456	35.91	-1
0	7478	36.01	-1
0	7499	36.11	-1
0	7520	36.21	-1
0	7541	36.31	-1
0	7562	36.41	-1
0	7583	36.51	-1
0	7604	36.61	-1
0	7625	36.71	-1
0	7646	36.81	-1
0	7667	36.91	-1
0	7689	37.01	-1
0	7710	37.11	-1
0	7731	37.21	-1
0	7752	37.31	-1
0	7773	37.41	-1
0	7794	37.51	-1
0	7815	37.61	-1
0	7836	37.71	-1
0	7857	37.81	-1
0	7878	37.91	-1
0	7900	38.01	-1
0	7921	38.11	-1
0	7942	38.21	-1
0	7963	38.31	-1
0	7984	38.41	-1
0	8005	38.51	-1
0	8026	38.61	-1
0	8047	38.71	-1
0	8068	38.81	-1
0	8089	38.91	-1
0	8111	39.01	-1
0	8132	39.11	-1
0	8153	39.21	-1
0	8174	39.31	-1
0	8195	39.41	-1
0	8216	39.51	-1
0	8237	39.61	-1
0	8258	39.71	-1
0	8279	39.81	-1
0	8300	39.91	-1
0	8322	40.01	-1
0	8343	40.11	-1
0	8364	40.21	-1
0	8385	40.31	-1
0	8406	40.41	-1
0	8427	40.51	-1
0	8448	40.61	-1
0	8469	40.71	-1
0	8490	40.81	-1
0	8511	40.91	-1
0	8533	41.01	-1
0	8554	41.11	-1
0	8575	41.21	-1
0	8596	41.31	-1
0	8617	41.41	-1
0	8638	41.51	-1
0	8659	41.61	-1
0	8680	41.71	-1
0	8701	41.81	-1
0	8722	41.91	-1
0	8744	42.01	-1
0	8765	42.11	-1
0	8786	42.21	-1
0	8807	42.31	-1
0	8828	42.41	-1
0	8849	42.51	-1
0	8870	42.61	-1
0	8891	42.71	-1
0	8912	42.81	-1
0	8933	42.91	-1
0	8955	43.01	-1
0	8976	43.11	-1
0	8997	43.21	-1
0	9018	43.31	-1
0	9039	43.41	-1
0	9060	43.51	-1
0	9081	43.61	-1
0	9102	43.71	-1
0	9123	43.81	-1
0	9144	43.91	-1
0	9166	44.01	-1
0	9187	44.11	-1
0	9208	44.21	-1
0	9229	44.31	-1
0	9250	44.41	-1
0	9271	44.51	-1
0	9292	44.61	-1
0	9313	44.71	-1
0	9334	44.81	-1
0	9355	44.91	-1
0	9377	45.01	-1
0	9398	45.11	-1
0	9419	45.21	-1
0	9440	45.31	-1
0	9461	45.41	-1
0	9482	45.51	-1
0	9503	45.61	-1
0	9524	45.71	-1
0	9545	45.81	-1
0	9566	45.91	-1
0	9588	46.01	-1
0	9609	46.11	-1
0	9630	46.21	-1
0	9651	46.31	-1
0	9672	46.41	-1
0	9693	46.51	-1
0	9714	46.61	-1
0	9735	46.71	-1
0	9756	46.81	-1
0	9777	46.91	-1
0	9799	47.01	-1
0	9820	47.11	-1
0	9841	47.21	-1
0	9862	47.31	-1
0	9883	47.41	-1
0	9904	47.51	-1
0	9925	47.61	-1
0	9946	47.71	-1
0	9967	47.81	-1
0	9988	47.91	-1
0	10010	48.01	-1
0	10031	48.11	-1
0	10052	48.21	-1
0	10073	48.31	-1
0	10094	48.41	-1
0	10115	48.51	-1
0	10136	48.61	-1
0	10157	48.71	-1
0	10178	48.81	-1
0	10199	48.91	-1
0	10221	49.01	-1
0	10242	49.11	-1
0	10263	49.21	-1
0	10284	49.31	-1
0	10305	49.41	-1
0	10326	49.51	-1
0	10347	49.61	-1
0	10368	49.71	-1
0	10389	49.81	-1
0	10410	49.91	-1
0	10432	50.01	-1
0	10453	50.11	-1
0	10474	50.21	-1
0	10495	50.31	-1
0	10516	50.41	-1
0	10537	50.51	-1
0	10558	50.61	-1
0	10579	50.71	-1
0	10600	50.81	-1
0	10621	50.91	-1
0	10643	51.01	-1
0	10664	51.11	-1
0	10685	51.21	-1
0	10706	51.31	-1
0	10727	51.41	-1
0	10748	51.51	-1
0	10769	51.61	-1
0	10790	51.71	-1
0	10811	51.81	-1
0	10832	51.91	-1
0	10854	52.01	-1
0	10875	52.11	-1
0	10896	52.21	-1
0	10917	52.31	-1
0	10938	52.41	-1
0	10959	52.51	-1
0	10980	52.61	-1
0	11001	52.71	-1
0	11022	52.81	-1
0	11043	52.91	-1
0	11065	53.01	-1
0	11086	53.11	-1
0	11107	53.21	-1
0	11128	53.31	-1
0	11149	53.41	-1
0	11170	53.51	-1
0	11191	53.61	-1
0	11212	53.71	-1
0	11233	53.81	-1
0	11254	53.91	-1
0	11276	54.01	-1
0	11297	54.11	-1
0	11318	54.21	-1
0	11339	54.31	-1
0	11360	54.41	-1
0	11381	54.51	-1
0	11402	54.61	-1
0	11423	54.71	-1
0	11444	54.81	-1
0	11465	54.91	-1
0	11487	55.01	-1
0	11508	55.11	-1
0	11529	55.21	-1
0	11550	55.31	-1
0	11571	55.41	-1
0	11592	55.51	-1
0	11613	55.61	-1
0	11634	55.71	-1
0	11655	55.81	-1
0	11676	55.91	-1
0	11698	56.01	-1
0	11719	56.11	-1
0	11740	56.21	-1
0	11761	56.31	-1
0	11782	56.41	-1
0	11803	56.51	-1
0	11824	56.61	-1
0	11845	56.71	-1
0	11866	56.81	-1
0	11887	56.91	-1
0	11909	57.01	-1
0	11930	57.11	-1
0	11951	57.21	-1
0	11972	57.31	-1
0	11993	57.41	-1
0	12014	57.51	-1
0	12035	57.61	-1
0	12056	57.71	-1
0	12077	57.81	-1
0	12098	57.91	-1
0	12120	58.01	-1
0	12141	58.11	-1
0	12162	58.21	-1
0	12183	58.31	-1
0	12204	58.41	-1
0	12225	58.51	-1
0	12246	58.61	-1
0	12267	58.71	-1
0	12288	58.81	-1
0	12309	58.91	-1
0	12331	59.01	-1
0	12352	59.11	-1
0	12373	59.21	-1
0	12394	59.31	-1
0	12415	59.41	-1
0	12436	59.51	-1
0	12457	59.61	-1
0	12478	59.71	-1
0	12499	59.81	-1
0	12520	59.91	-1
0	12542	60.01	-1
0	12563	60.11	-1
0	12584	60.21	-1
0	12605	60.31	-1
0	12626	60.41	-1
0	12647	60.51	-1
0	12668	60.61	-1
0	12689	60.71	-1
0	12710	60.81	-1
0	12731	60.91	-1
0	12753	61.01	-1
0	12774	61.11	-1
0	12795	61.21	-1
0	12816	61.31	-1
0	12837	61.41	-1
0	12858	61.51	-1
0	12879	61.61	-1
0	12900	61.71	-1
0	12921	61.81	-1
0	12942	61.91	-1
0	12964	62.01	-1
0	12985	62.11	-1
0	13006	62.21	-1
0	13027	62.31	-1
0	13048	62.41	-1
0	13069	62.51	-1
0	13090	62.61	-1
0	13111	62.71	-1
0	13132	62.81	-1
0	13153	62.91	-1
0	13175	63.01	-1
0	13196	63.11	-1
0	13217	63.21	-1
0	13238	63.31	-1
0	13259	63.41	-1
0	13280	63.51	-1
0	13301	63.61	-1
0	13322	63.71	-1
0	13343	63.81	-1
0	13364	63.91	-1
0	13386	64.01	-1
0	13407	64.11	-1
0	13428	64.21	-1
0	13449	64.31	-1
0	13470	64.41	-1
0	13491	64.51	-1
0	13512	64.61	-1
0	13533	64.71	-1
0	13554	64.81	-1
0	13575	64.91	-1
0	13597	65.01	-1
0	13618	65.11	-1
0	13639	65.21	-1
0	13660	65.31	-1
0	13681	65.41	-1
0	13702	65.51	-1
0	13723	65.61	-1
0	13744	65.71	-1
0	13765	65.81	-1
0	13786	65.91	-1
0	13808	66.01	-1
0	13829	66.11	-1
0	13850	66.21	-1
0	13871	66.31	-1
0	13892	66.41	-1
0	13913	66.51	-1
0	13934	66.61	-1
0	13955	66.71	-1
0	13976	66.81	-1
0	13997	66.91	-1
0	14019	67.01	-1
0	14040	67.11	-1
0	14061	67.21	-1
0	14082	67.31	-1
0	14103	67.41	-1
0	14124	67.51	-1
0	14145	67.61	-1
0	14166	67.71	-1
0	14187	67.81	-1
0	14208	67.91	-1
0	14230	68.01	-1
0	14251	68.11	-1
0	14272	68.21	-1
0	14293	68.31	-1
0	14314	68.41	-1
0	14335	68.51	-1
0	14356	68.61	-1
0	14377	68.71	-1
0	14398	68.81	-1
0	14419	68.91	-1
0	14441	69.01	-1
0	14462	69.11	-1
0	14483	69.21	-1
0	14504	69.31	-1
0	14525	69.41	-1
0	14546	69.51	-1
0	14567	69.61	-1
0	14588	69.71	-1
0	14609	69.81	-1
0	14630	69.91	-1
0	14652	70.01	-1
0	14673	70.11	-1
0	14694	70.21	-1
0	14715	70.31	-1
0	14736	70.41	-1
0	14757	70.51	-1
0	14778	70.61	-1
0	14799	70.71	-1
0	14820	70.81	-1
0	14841	70.91	-1
0	14863	71.01	-1
0	14884	71.11	-1
0	14905	71.21	-1
0	14926	71.31	-1
0	14947	71.41	-1
0	14968	71.51	-1
0	14989	71.61	-1
0	15010	71.71	-1
0	15031	71.81	-1
0	15052	71.91	-1
0	15074	72.01	-1
0	15095	72.11	-1
0	15116	72.21	-1
0	15137	72.31	-1
0	15158	72.41	-1
0	15179	72.51	-1
0	15200	72.61	-1
0	15221	72.71	-1
0	15242	72.81	-1
0	15263	72.91	-1
0	15285	73.01	-1
0	15306	73.11	-1
0	15327	73.21	-1
0	15348	73.31	-1
0	15369	73.41	-1
0	15390	73.51	-1
0	15411	73.61	-1
0	15432	73.71	-1
0	15453	73.81	-1
0	15474	73.91	-1
0	15496	74.01	-1
0	15517	74.11	-1
0	15538	74.21	-1
0	15559	74.31	-1
0	15580	74.41	-1
0	15601	74.51	-1
0	15622	74.61	-1
0	15643	74.71	-1
0	15664	74.81	-1
0	15685	74.91	-1
0	15708	75.01	-1
0	15729	75.11	-1
0	15750	75.21	-1
0	15771	75.31	-1
0	15792	75.41	-1
0	15813	75.51	-1
0	15834	75.61	-1
0	15855	75.71	-1
0	15876	75.81	-1
0	15897	75.91	-1
0	15919	76.01	-1
0	15940	76.11	-1
0	15961	76.21	-1
0	15982	76.31	-1
0	16003	76.41	-1
0	16024	76.51	-1
0	16045	76.61	-1
0	16066	76.71	-1
0	16087	76.81	-1
0	16108	76.91	-1
0	16130	77.01	-1
0	16151	77.11	-1
0	16172	77.21	-1
0	16193	77.31	-1
0	16214	77.41	-1
0	16235	77.51	-1
0	16256	77.61	-1
0	16277	77.71	-1
0	16298	77.81	-1
0	16319	77.91	-1
0	16341	78.01	-1
0	16362	78.11	-1
0	16383	78.21	-1
0	16404	78.31	-1
0	16425	78.41	-1
0	16446	78.51	-1
0	16467	78.61	-1
0	16488	78.71	-1
0	16509	78.81	-1
0	16530	78.91	-1
0	16552	79.01	-1
0	16573	79.11	-1
0	16594	79.21	-1
0	16615	79.31	-1
0	16636	79.41	-1
0	16657	79.51	-1
0	16678	79.61	-1
0	16699	79.71	-1
0	16720	79.81	-1
0	16741	79.91	-1
0	16763	80.01	-1
0	16784	80.11	-1
0	16805	80.21	-1
0	16826	80.31	-1
0	16847	80.41	-1
0	16868	80.51	-1
0	16889	80.61	-1
0	16910	80.71	-1
0	16931	80.81	-1
0	16952	80.91	-1
0	16974	81.01	-1
0	16995	81.11	-1
0	17016	81.21	-1
0	17037	81.31	-1
0	17058	81.41	-1
0	17079	81.51	-1
0	17100	81.61	-1
0	17121	81.71	-1
0	17142	81.81	-1
0	17163	81.91	-1
0	17185	82.01	-1
0	17206	82.11	-1
0	17227	82.21	-1
0	17248	82.31	-1
0	17269	82.41	-1
0	17290	82.51	-1
0	17311	82.61	-1
0	17332	82.71	-1
0	17353	82.81	-1
0	17374	82.91	-1
0	17396	83.01	-1
0	17417	83.11	-1
0	17438	83.21	-1
0	17459	83.31	-1
0	17480	83.41	-1
0	17501	83.51	-1
0	17522	83.61	-1
0	17543	83.71	-1
0	17564	83.81	-1
0	17585	83.91	-1
0	17607	84.01	-1
0	17628	84.11	-1
0	17649	84.21	-1
0	17670	84.31	-1
0	17691	84.41	-1
0	17712	84.51	-1
0	17733	84.61	-1
0	17754	84.71	-1
0	17775	84.81	-1
0	17796	84.91	-1
0	17818	85.01	-1
0	17839	85.11	-1
0	17860	85.21	-1
0	17881	85.31	-1
0	17902	85.41	-1
0	17923	85.51	-1
0	17944	85.61	-1
0	17965	85.71	-1
0	17986	85.81	-1
0	18007	85.91	-1
0	18029	86.01	-1
0	18050	86.11	-1
0	18071	86.21	-1
0	18092	86.31	-1
0	18113	86.41	-1
0	18134	86.51	-1
0	18155	86.61	-1
0	18176	86.71	-1
0	18197	86.81	-1
0	18218	86.91	-1
0	18240	87.01	-1
0	18261	87.11	-1
0	18282	87.21	-1
0	18303	87.31	-1
0	18324	87.41	-1
0	18345	87.51	-1
0	18366	87.61	-1
0	18387	87.71	-1
0	18408	87.81	-1
0	18429	87.91	-1
0	18451	88.01	-1
0	18472	88.11	-1
0	18493	88.21	-1
0	18514	88.31	-1
0	18535	88.41	-1
0	18556	88.51	-1
0	18577	88.61	-1
0	18598	88.71	-1
0	18619	88.81	-1
0	18640	88.91	-1
0	18662	89.01	-1
0	18683	89.11	-1
0	18704	89.21	-1
0	18725	89.31	-1
0	18746	89.41	-1
0	18767	89.51	-1
0	18788	89.61	-1
0	18809	89.71	-1
0	18830	89.81	-1
0	18851	89.91	-1
0	18873	90.01	-1
0	18894	90.11	-1
0	18915	90.21	-1
0	18936	90.31	-1
0	18957	90.41	-1
0	18978	90.51	-1
0	18999	90.61	-1
0	19020	90.71	-1
0	19041	90.81	-1
0	19062	90.91	-1
0	19084	91.01	-1
0	19105	91.11	-1
0	19126	91.21	-1
0	19147	91.31	-1
0	19168	91.41	-1
0	19189	91.51	-1
0	19210	91.61	-1
0	19231	91.71	-1
0	19252	91.81	-1
0	19273	91.91	-1
0	19295	92.01	-1
0	19316	92.11	-1
0	19337	92.21	-1
0	19358	92.31	-1
0	19379	92.41	-1
0	19400	92.51	-1
0	19421	92.61	-1
0	19442	92.71	-1
0	19463	92.81	-1
0	19484	92.91	-1
0	19506	93.01	-1
0	19527	93.11	-1
0	19548	93.21	-1
0	19569	93.31	-1
0	19590	93.41	-1
0	19611	93.51	-1
0	19632	93.61	-1
0	19653	93.71	-1
0	19674	93.81	-1
0	19695	93.91	-1
0	19717	94.01	-1
0	19738	94.11	-1
0	19759	94.21	-1
0	19780	94.31	-1
0	19801	94.41	-1
0	19822	94.51	-1
0	19843	94.61	-1
0	19864	94.71	-1
0	19885	94.81	-1
0	19906	94.91	-1
0	19928	95.01	-1
0	19949	95.11	-1
0	19970	95.21	-1
0	19991	95.31	-1
0	20012	95.41	-1
0	20033	95.51	-1
0	20054	95.61	-1
0	20075	95.71	-1
0	20096	95.81	-1
0	20117	95.91	-1
0	20139	96.01	-1
0	20160	96.11	-1
0	20181	96.21	-1
0	20202	96.31	-1
0	20223	96.41	-1
0	20244	96.51	-1
0	20265	96.61	-1
0	20286	96.71	-1
0	20307	96.81	-1
0	20328	96.91	-1
0	20350	97.01	-1
0	20371	97.11	-1
0	20392	97.21	-1
0	20413	97.31	-1
0	20434	97.41	-1
0	20455	97.51	-1
0	20476	97.61	-1
0	20497	97.71	-1
0	20518	97.81	-1
0	20539	97.91	-1
0	20561	98.01	-1
0	20582	98.11	-1
0	20603	98.21	-1
0	20624	98.31	-1
0	20645	98.41	-1
0	20666	98.51	-1
0	20687	98.61	-1
0	20708	98.71	-1
0	20729	98.81	-1
0	20750	98.91	-1
0	20772	99.01	-1
0	20793	99.11	-1
0	20814	99.21	-1
0	20835	99.31	-1
0	20856	99.41	-1
0	20877	99.51	-1
0	20898	99.61	-1
0	20919	99.71	-1
0	20940	99.81	-1
0	20961	99.91	-1
1	113	1.11	0
1	134	1.21	0
1	155	1.31	0
1	176	1.41	0
1	197	1.51	0
1	218	1.61	0
1	239	1.71	0
1	260	1.81	0
1	281	1.91	0
1	303	2.01	0
1	324	2.11	0
1	345	2.21	0
1	366	2.31	0
1	387	2.41	0
1	408	2.51	0
1	429	2.61	0
1	450	2.71	0
1	471	2.81	0
1	492	2.91	0
1	514	3.01	0
1	535	3.11	0
1	556	3.21	0
1	577	3.31	0
1	598	3.41	0
1	619	3.51	0
1	640	3.61	0
1	661	3.71	0
1	682	3.81	0
1	703	3.91	0
1	725	4.01	0
1	746	4.11	0
1	767	4.21	0
1	788	4.31	0
1	809	4.41	0
1	830	4.51	0
1	851	4.61	0
1	872	4.71	0
1	893	4.81	0
1	914	4.91	0
1	937	5.01	0
1	958	5.11	0
1	979	5.21	0
1	1000	5.31	0
1	1021	5.41	0
1	1042	5.51	0
1	1063	5.61	0
1	1084	5.71	0
1	1105	5.81	0
1	1126	5.91	0
1	1148	6.01	0
1	1169	6.11	0
1	1190	6.21	0
1	1211	6.31	0
1	1232	6.41	0
1	1253	6.51	0
1	1274	6.61	0
1	1295	6.71	0
1	1316	6.81	0
1	1337	6.91	0
1	1359	7.01	0
1	1380	7.11	0
1	1401	7.21	0
1	1422	7.31	0
1	1443	7.41	0
1	1464	7.51	0
1	1485	7.61	0
1	1506	7.71	0
1	1527	7.81	0
1	1548	7.91	0
1	1570	8.01	0
1	1591	8.11	0
1	1612	8.21	0
1	1633	8.31	0
1	1654	8.41	0
1	1675	8.51	0
1	1696	8.61	0
1	1717	8.71	0
1	1738	8.81	0
1	1759	8.91	0
1	1781	9.01	0
1	1802	9.11	0
1	1823	9.21	0
1	1844	9.31	0
1	1865	9.41	0
1	1886	9.51	0
1	1907	9.61	0
1	1928	9.71	0
1	1949	9.81	0
1	1970	9.91	0
1	1992	10.01	0
1	2013	10.11	0
1	2034	10.21	0
1	2055	10.31	0
1	2076	10.41	0
1	2097	10.51	0
1	2118	10.61	0
1	2139	10.71	0
1	2160	10.81	0
1	2181	10.91	0
1	2203	11.01	0
1	2224	11.11	0
1	2245	11.21	0
1	2266	11.31	0
1	2287	11.41	0
1	2308	11.51	0
1	2329	11.61	0
1	2350	11.71	0
1	2371	11.81	0
1	2392	11.91	0
1	2414	12.01	0
1	2435	12.11	0
1	2456	12.21	0
1	2477	12.31	0
1	2498	12.41	0
1	2519	12.51	0
1	2540	12.61	0
1	2561	12.71	0
1	2582	12.81	0
1	2603	12.91	0
1	2625	13.01	0
1	2646	13.11	0
1	2667	13.21	0
1	2688	13.31	0
1	2709	13.41	0
1	2730	13.51	0
1	2751	13.61	0
1	2772	13.71	0
1	2793	13.81	0
1	2814	13.91	0
1	2836	14.01	0
1	2857	14.11	0
1	2878	14.21	0
1	2899	14.31	0
1	2920	14.41	0
1	2941	14.51	0
1	2962	14.61	0
1	2983	14.71	0
1	3004	14.81	0
1	3025	14.91	0
1	3047	15.01	0
1	3068	15.11	0
1	3089	15.21	0
1	3110	15.31	0
1	3131	15.41	0
1	3152	15.51	0
1	3173	15.61	0
1	3194	15.71	0
1	3215	15.81	0
1	3236	15.91	0
1	3258	16.01	0
1	3279	16.11	0
1	3300	16.21	0
1	3321	16.31	0
1	3342	16.41	0
1	3363	16.51	0
1	3384	16.61	0
1	3405	16.71	0
1	3426	16.81	0
1	3447	16.91	0
1	3469	17.01	0
1	3490	17.11	0
1	3511	17.21	0
1	3532	17.31	0
1	3553	17.41	0
1	3574	17.51	0
1	3595	17.61	0
1	3616	17.71	0
1	3637	17.81	0
1	3658	17.91	0
1	3680	18.01	0
1	3701	18.11	0
1	3722	18.21	0
1	3743	18.31	0
1	3764	18.41	0
1	3785	18.51	0
1	3806	18.61	0
1	3827	18.71	0
1	3848	18.81	0
1	3869	18.91	0
1	3891	19.01	0
1	3912	19.11	0
1	3933	19.21	0
1	3954	19.31	0
1	3975	19.41	0
1	3996	19.51	0
1	4017	19.61	0
1	4038	19.71	0
1	4059	19.81	0
1	4080	19.91	0
1	4102	20.01	0
1	4123	20.11	0
1	4144	20.21	0
1	4165	20.31	0
1	4186	20.41	0
1	4207	20.51	0
1	4228	20.61	0
1	4249	20.71	0
1	4270	20.81	0
1	4291	20.91	0
1	4313	21.01	0
1	4334	21.11	0
1	4355	21.21	0
1	4376	21.31	0
1	4397	21.41	0
1	4418	21.51	0
1	4439	21.61	0
1	4460	21.71	0
1	4481	21.81	0
1	4502	21.91	0
1	4524	22.01	0
1	4545	22.11	0
1	4566	22.21	0
1	4587	22.31	0
1	4608	22.41	0
1	4629	22.51	0
1	4650	22.61	0
1	4671	22.71	0
1	4692	22.81	0
1	4713	22.91	0
1	4735	23.01	0
1	4756	23.11	0
1	4777	23.21	0
1	4798	23.31	0
1	4819	23.41	0
1	4840	23.51	0
1	4861	23.61	0
1	4882	23.71	0
1	4903	23.81	0
1	4924	23.91	0
1	4946	24.01	0
1	4967	24.11	0
1	4988	24.21	0
1	5009	24.31	0
1	5030	24.41	0
1	5051	24.51	0
1	5072	24.61	0
1	5093	24.71	0
1	5114	24.81	0
1	5135	24.91	0
1	5157	25.01	0
1	5178	25.11	0
1	5199	25.21	0
1	5220	25.31	0
1	5241	25.41	0
1	5262	25.51	0
1	5283	25.61	0
1	5304	25.71	0
1	5325	25.81	0
1	5346	25.91	0
1	5368	26.01	0
1	5389	26.11	0
1	5410	26.21	0
1	5431	26.31	0
1	5452	26.41	0
1	5473	26.51	0
1	5494	26.61	0
1	5515	26.71	0
1	5536	26.81	0
1	5557	26.91	0
1	5579	27.01	0
1	5600	27.11	0
1	5621	27.21	0
1	5642	27.31	0
1	5663	27.41	0
1	5684	27.51	0
1	5705	27.61	0
1	5726	27.71	0
1	5747	27.81	0
1	5768	27.91	0
1	5790	28.01	0
1	5811	28.11	0
1	5832	28.21	0
1	5853	28.31	0
1	5874	28.41	0
1	5895	28.51	0
1	5916	28.61	0
1	5937	28.71	0
1	5958	28.81	0
1	5979	28.91	0
1	6001	29.01	0
1	6022	29.11	0
1	6043	29.21	0
1	6064	29.31	0
1	6085	29.41	0
1	6106	29.51	0
1	6127	29.61	0
1	6148	29.71	0
1	6169	29.81	0
1	6190	29.91	0
1	6212	30.01	0
1	6233	30.11	0
1	6254	30.21	0
1	6275	30.31	0
1	6296	30.41	0
1	6317	30.51	0
1	6338	30.61	0
1	6359	30.71	0
1	6380	30.81	0
1	6401	30.91	0
1	6423	31.01	0
1	6444	31.11	0
1	6465	31.21	0
1	6486	31.31	0
1	6507	31.41	0
1	6528	31.51	0
1	6549	31.61	0
1	6570	31.71	0
1	6591	31.81	0
1	6612	31.91	0
1	6634	32.01	0
1	6655	32.11	0
1	6676	32.21	0
1	6697	32.31	0
1	6718	32.41	0
1	6739	32.51	0
1	6760	32.61	0
1	6781	32.71	0
1	6802	32.81	0
1	6823	32.91	0
1	6845	33.01	0
1	6866	33.11	0
1	6887	33.21	0
1	6908	33.31	0
1	6929	33.41	0
1	6950	33.51	0
1	6971	33.61	0
1	6992	33.71	0
1	7013	33.81	0
1	7034	33.91	0
1	7056	34.01	0
1	7077	34.11	0
1	7098	34.21	0
1	7119	34.31	0
1	7140	34.41	0
1	7161	34.51	0
1	7182	34.61	0
1	7203	34.71	0
1	7224	34.81	0
1	7245	34.91	0
1	7267	35.01	0
1	7288	35.11	0
1	7309	35.21	0
1	7330	35.31	0
1	7351	35.41	0
1	7372	35.51	0
1	7393	35.61	0
1	7414	35.71	0
1	7435	35.81	0
1	7456	35.91	0
1	7478	36.01	0
1	7499	36.11	0
1	7520	36.21	0
1	7541	36.31	0
1	7562	36.41	0
1	7583	36.51	0
1	7604	36.61	0
1	7625	36.71	0
1	7646	36.81	0
1	7667	36.91	0
1	7689	37.01	0
1	7710	37.11	0
1	7731	37.21	0
1	7752	37.31	0
1	7773	37.41	0
1	7794	37.51	0
1	7815	37.61	0
1	7836	37.71	0
1	7857	37.81	0
1	7878	37.91	0
1	7900	38.01	0
1	7921	38.11	0
1	7942	38.21	0
1	7963	38.31	0
1	7984	38.41	0
1	8005	38.51	0
1	8026	38.61	0
1	8047	38.71	0
1	8068	38.81	0
1	8089	38.91	0
1	8111	39.01	0
1	8132	39.11	0
1	8153	39.21	0
1	8174	39.31	0
1	8195	39.41	0
1	8216	39.51	0
1	8237	39.61	0
1	8258	39.71	0
1	8279	39.81	0
1	8300	39.91	0
1	8322	40.01	0
1	8343	40.11	0
1	8364	40.21	0
1	8385	40.31	0
1	8406	40.41	0
1	8427	40.51	0
1	8448	40.61	0
1	8469	40.71	0
1	8490	40.81	0
1	8511	40.91	0
1	8533	41.01	0
1	8554	41.11	0
1	8575	41.21	0
1	8596	41.31	0
1	8617	41.41	0
1	8638	41.51	0
1	8659	41.61	0
1	8680	41.71	0
1	8701	41.81	0
1	8722	41.91	0
1	8744	42.01	0
1	8765	42.11	0
1	8786	42.21	0
1	8807	42.31	0
1	8828	42.41	0
1	8849	42.51	0
1	8870	42.61	0
1	8891	42.71	0
1	8912	42.81	0
1	8933	42.91	0
1	8955	43.01	0
1	8976	43.11	0
1	8997	43.21	0
1	9018	43.31	0
1	9039	43.41	0
1	9060	43.51	0
1	9081	43.61	0
1	9102	43.71	0
1	9123	43.81	0
1	9144	43.91	0
1	9166	44.01	0
1	9187	44.11	0
1	9208	44.21	0
1	9229	44.31	0
1	9250	44.41	0
1	9271	44.51	0
1	9292	44.61	0
1	9313	44.71	0
1	9334	44.81	0
1	9355	44.91	0
1	9377	45.01	0
1	9398	45.11	0
1	9419	45.21	0
1	9440	45.31	0
1	9461	45.41	0
1	9482	45.51	0
1	9503	45.61	0
1	9524	45.71	0
1	9545	45.81	0
1	9566	45.91	0
1	9588	46.01	0
1	9609	46.11	0
1	9630	46.21	0
1	9651	46.31	0
1	9672	46.41	0
1	9693	46.51	0
1	9714	46.61	0
1	9735	46.71	0
1	9756	46.81	0
1	9777	46.91	0
1	9799	47.01	0
1	9820	47.11	0
1	9841	47.21	0
1	9862	47.31	0
1	9883	47.41	0
1	9904	47.51	0
1	9925	47.61	0
1	9946	47.71	0
1	9967	47.81	0
1	9988	47.91	0
1	10010	48.01	0
1	10031	48.11	0
1	10052	48.21	0
1	10073	48.31	0
1	10094	48.41	0
1	10115	48.51	0
1	10136	48.61	0
1	10157	48.71	0
1	10178	48.81	0
1	10199	48.91	0
1	10221	49.01	0
1	10242	49.11	0
1	10263	49.21	0
1	10284	49.31	0
1	10305	49.41	0
1	10326	49.51	0
1	10347	49.61	0
1	10368	49.71	0
1	10389	49.81	0
1	10410	49.91	0
1	10432	50.01	0
1	10453	50.11	0
1	10474	50.21	0
1	10495	50.31	0
1	10516	50.41	0
1	10537	50.51	0
1	10558	50.61	0
1	10579	50.71	0
1	10600	50.81	0
1	10621	50.91	0
1	10643	51.01	0
1	10664	51.11	0
1	10685	51.21	0
1	10706	51.31	0
1	10727	51.41	0
1	10748	51.51	0
1	10769	51.61	0
1	10790	51.71	0
1	10811	51.81	0
1	10832	51.91	0
1	10854	52.01	0
1	10875	52.11	0
1	10896	52.21	0
1	10917	52.31	0
1	10938	52.41	0
1	10959	52.51	0
1	10980	52.61	0
1	11001	52.71	0
1	11022	52.81	0
1	11043	52.91	0
1	11065	53.01	0
1	11086	53.11	0
1	11107	53.21	0
1	11128	53.31	0
1	11149	53.41	0
1	11170	53.51	0
1	11191	53.61	0
1	11212	53.71	0
1	11233	53.81	0
1	11254	53.91	0
1	11276	54.01	0
1	11297	54.11	0
1	11318	54.21	0
1	11339	54.31	0
1	11360	54.41	0
1	11381	54.51	0
1	11402	54.61	0
1	11423	54.71	0
1	11444	54.81	0
1	11465	54.91	0
1	11487	55.01	0
1	11508	55.11	0
1	11529	55.21	0
1	11550	55.31	0
1	11571	55.41	0
1	11592	55.51	0
1	11613	55.61	0
1	11634	55.71	0
1	11655	55.81	0
1	11676	55.91	0
1	11698	56.01	0
1	11719	56.11	0
1	11740	56.21	0
1	11761	56.31	0
1	11782	56.41	0
1	11803	56.51	0
1	11824	56.61	0
1	11845	56.71	0
1	11866	56.81	0
1	11887	56.91	0
1	11909	57.01	0
1	11930	57.11	0
1	11951	57.21	0
1	11972	57.31	0
1	11993	57.41	0
1	12014	57.51	0
1	12035	57.61	0
1	12056	57.71	0
1	12077	57.81	0
1	12098	57.91	0
1	12120	58.01	0
1	12141	58.11	0
1	12162	58.21	0
1	12183	58.31	0
1	12204	58.41	0
1	12225	58.51	0
1	12246	58.61	0
1	12267	58.71	0
1	12288	58.81	0
1	12309	58.91	0
1	12331	59.01	0
1	12352	59.11	0
1	12373	59.21	0
1	12394	59.31	0
1	12415	59.41	0
1	12436	59.51	0
1	12457	59.61	0
1	12478	59.71	0
1	12499	59.81	0
1	12520	59.91	0
1	12542	60.01	0
1	12563	60.11	0
1	12584	60.21	0
1	12605	60.31	0
1	12626	60.41	0
1	12647	60.51	0
1	12668	60.61	0
1	12689	60.71	0
1	12710	60.81	0
1	12731	60.91	0
1	12753	61.01	0
1	12774	61.11	0
1	12795	61.21	0
1	12816	61.31	0
1	12837	61.41	0
1	12858	61.51	0
1	12879	61.61	0
1	12900	61.71	0
1	12921	61.81	0
1	12942	61.91	0
1	12964	62.01	0
1	12985	62.11	0
1	13006	62.21	0
1	13027	62.31	0
1	13048	62.41	0
1	13069	62.51	0
1	13090	62.61	0
1	13111	62.71	0
1	13132	62.81	0
1	13153	62.91	0
1	13175	63.01	0
1	13196	63.11	0
1	13217	63.21	0
1	13238	63.31	0
1	13259	63.41	0
1	13280	63.51	0
1	13301	63.61	0
1	13322	63.71	0
1	13343	63.81	0
1	13364	63.91	0
1	13386	64.01	0
1	13407	64.11	0
1	13428	64.21	0
1	13449	64.31	0
1	13470	64.41	0
1	13491	64.51	0
1	13512	64.61	0
1	13533	64.71	0
1	13554	64.81	0
1	13575	64.91	0
1	13597	65.01	0
1	13618	65.11	0
1	13639	65.21	0
1	13660	65.31	0
1	13681	65.41	0
1	13702	65.51	0
1	13723	65.61	0
1	13744	65.71	0
1	13765	65.81	0
1	13786	65.91	0
1	13808	66.01	0
1	13829	66.11	0
1	13850	66.21	0
1	13871	66.31	0
1	13892	66.41	0
1	13913	66.51	0
1	13934	66.61	0
1	13955	66.71	0
1	13976	66.81	0
1	13997	66.91	0
1	14019	67.01	0
1	14040	67.11	0
1	14061	67.21	0
1	14082	67.31	0
1	14103	67.41	0
1	14124	67.51	0
1	14145	67.61	0
1	14166	67.71	0
1	14187	67.81	0
1	14208	67.91	0
1	14230	68.01	0
1	14251	68.11	0
1	14272	68.21	0
1	14293	68.31	0
1	14314	68.41	0
1	14335	68.51	0
1	14356	68.61	0
1	14377	68.71	0
1	14398	68.81	0
1	14419	68.91	0
1	14441	69.01	0
1	14462	69.11	0
1	14483	69.21	0
1	14504	69.31	0
1	14525	69.41	0
1	14546	69.51	0
1	14567	69.61	0
1	14588	69.71	0
1	14609	69.81	0
1	14630	69.91	0
1	14652	70.01	0
1	14673	70.11	0
1	14694	70.21	0
1	14715	70.31	0
1	14736	70.41	0
1	14757	70.51	0
1	14778	70.61	0
1	14799	70.71	0
1	14820	70.81	0
1	14841	70.91	0
1	14863	71.01	0
1	14884	71.11	0
1	14905	71.21	0
1	14926	71.31	0
1	14947	71.41	0
1	14968	71.51	0
1	14989	71.61	0
1	15010	71.71	0
1	15031	71.81	0
1	15052	71.91	0
1	15074	72.01	0
1	15095	72.11	0
1	15116	72.21	0
1	15137	72.31	0
1	15158	72.41	0
1	15179	72.51	0
1	15200	72.61	0
1	15221	72.71	0
1	15242	72.81	0
1	15263	72.91	0
1	15285	73.01	0
1	15306	73.11	0
1	15327	73.21	0
1	15348	73.31	0
1	15369	73.41	0
1	15390	73.51	0
1	15411	73.61	0
1	15432	73.71	0
1	15453	73.81	0
1	15474	73.91	0
1	15496	74.01	0
1	15517	74.11	0
1	15538	74.21	0
1	15559	74.31	0
1	15580	74.41	0
1	15601	74.51	0
1	15622	74.61	0
1	15643	74.71	0
1	15664	74.81	0
1	15685	74.91	0
1	15708	75.01	0
1	15729	75.11	0
1	15750	75.21	0
1	15771	75.31	0
1	15792	75.41	0
1	15813	75.51	0
1	15834	75.61	0
1	15855	75.71	0
1	15876	75.81	0
1	15897	75.91	0
1	15919	76.01	0
1	15940	76.11	0
1	15961	76.21	0
1	15982	76.31	0
1	16003	76.41	0
1	16024	76.51	0
1	16045	76.61	0
1	16066	76.71	0
1	16087	76.81	0
1	16108	76.91	0
1	16130	77.01	0
1	16151	77.11	0
1	16172	77.21	0
1	16193	77.31	0
1	16214	77.41	0
1	16235	77.51	0
1	16256	77.61	0
1	16277	77.71	0
1	16298	77.81	0
1	16319	77.91	0
1	16341	78.01	0
1	16362	78.11	0
1	16383	78.21	0
1	16404	78.31	0
1	16425	78.41	0
1	16446	78.51	0
1	16467	78.61	0
1	16488	78.71	0
1	16509	78.81	0
1	16530	78.91	0
1	16552	79.01	0
1	16573	79.11	0
1	16594	79.21	0
1	16615	79.31	0
1	16636	79.41	0
1	16657	79.51	0
1	16678	79.61	0
1	16699	79.71	0
1	16720	79.81	0
1	16741	79.91	0
1	16763	80.01	0
1	16784	80.11	0
1	16805	80.21	0
1	16826	80.31	0
1	16847	80.41	0
1	16868	80.51	0
1	16889	80.61	0
1	16910	80.71	0
1	16931	80.81	0
1	16952	80.91	0
1	16974	81.01	0
1	16995	81.11	0
1	17016	81.21	0
1	17037	81.31	0
1	17058	81.41	0
1	17079	81.51	0
1	17100	81.61	0
1	17121	81.71	0
1	17142	81.81	0
1	17163	81.91	0
1	17185	82.01	0
1	17206	82.11	0
1	17227	82.21	0
1	17248	82.31	0
1	17269	82.41	0
1	17290	82.51	0
1	17311	82.61	0
1	17332	82.71	0
1	17353	82.81	0
1	17374	82.91	0
1	17396	83.01	0
1	17417	83.11	0
1	17438	83.21	0
1	17459	83.31	0
1	17480	83.41	0
1	17501	83.51	0
1	17522	83.61	0
1	17543	83.71	0
1	17564	83.81	0
1	17585	83.91	0
1	17607	84.01	0
1	17628	84.11	0
1	17649	84.21	0
1	17670	84.31	0
1	17691	84.41	0
1	17712	84.51	0
1	17733	84.61	0
1	17754	84.71	0
1	17775	84.81	0
1	17796	84.91	0
1	17818	85.01	0
1	17839	85.11	0
1	17860	85.21	0
1	17881	85.31	0
1	17902	85.41	0
1	17923	85.51	0
1	17944	85.61	0
1	17965	85.71	0
1	17986	85.81	0
1	18007	85.91	0
1	18029	86.01	0
1	18050	86.11	0
1	18071	86.21	0
1	18092	86.31	0
1	18113	86.41	0
1	18134	86.51	0
1	18155	86.61	0
1	18176	86.71	0
1	18197	86.81	0
1	18218	86.91	0
1	18240	87.01	0
1	18261	87.11	0
1	18282	87.21	0
1	18303	87.31	0
1	18324	87.41	0
1	18345	87.51	0
1	18366	87.61	0
1	18387	87.71	0
1	18408	87.81	0
1	18429	87.91	0
1	18451	88.01	0
1	18472	88.11	0
1	18493	88.21	0
1	18514	88.31	0
1	18535	88.41	0
1	18556	88.51	0
1	18577	88.61	0
1	18598	88.71	0
1	18619	88.81	0
1	18640	88.91	0
1	18662	89.01	0
1	18683	89.11	0
1	18704	89.21	0
1	18725	89.31	0
1	18746	89.41	0
1	18767	89.51	0
1	18788	89.61	0
1	18809	89.71	0
1	18830	89.81	0
1	18851	89.91	0
1	18873	90.01	0
1	18894	90.11	0
1	18915	90.21	0
1	18936	90.31	0
1	18957	90.41	0
1	18978	90.51	0
1	18999	90.61	0
1	19020	90.71	0
1	19041	90.81	0
1	19062	90.91	0
1	19084	91.01	0
1	19105	91.11	0
1	19126	91.21	0
1	19147	91.31	0
1	19168	91.41	0
1	19189	91.51	0
1	19210	91.61	0
1	19231	91.71	0
1	19252	91.81	0
1	19273	91.91	0
1	19295	92.01	0
1	19316	92.11	0
1	19337	92.21	0
1	19358	92.31	0
1	19379	92.41	0
1	19400	92.51	0
1	19421	92.61	0
1	19442	92.71	0
1	19463	92.81	0
1	19484	92.91	0
1	19506	93.01	0
1	19527	93.11	0
1	19548	93.21	0
1	19569	93.31	0
1	19590	93.41	0
1	19611	93.51	0
1	19632	93.61	0
1	19653	93.71	0
1	19674	93.81	0
1	19695	93.91	0
1	19717	94.01	0
1	19738	94.11	0
1	19759	94.21	0
1	19780	94.31	0
1	19801	94.41	0
1	19822	94.51	0
1	19843	94.61	0
1	19864	94.71	0
1	19885	94.81	0
1	19906	94.91	0
1	19928	95.01	0
1	19949	95.11	0
1	19970	95.21	0
1	19991	95.31	0
1	20012	95.41	0
1	20033	95.51	0
1	20054	95.61	0
1	20075	95.71	0
1	20096	95.81	0
1	20117	95.91	0
1	20139	96.01	0
1	20160	96.11	0
1	20181	96.21	0
1	20202	96.31	0
1	20223	96.41	0
1	20244	96.51	0
1	20265	96.61	0
1	20286	96.71	0
1	20307	96.81	0
1	20328	96.91	0
1	20350	97.01	0
1	20371	97.11	0
1	20392	97.21	0
1	20413	97.31	0
1	20434	97.41	0
1	20455	97.51	0
1	20476	97.61	0
1	20497	97.71	0
1	20518	97.81	0
1	20539	97.91	0
1	20561	98.01	0
1	20582	98.11	0
1	20603	98.21	0
1	20624	98.31	0
1	20645	98.41	0
1	20666	98.51	0
1	20687	98.61	0
1	20708	98.71	0
1	20729	98.81	0
1	20750	98.91	0
1	20772	99.01	0
1	20793	99.11	0
1	20814	99.21	0
1	20835	99.31	0
1	20856	99.41	0
1	20877	99.51	0
1	20898	99.61	0
1	20919	99.71	0
1	20940	99.81	0
1	20961	99.91	0
2	113	1.11	0
2	134	1.21	0
2	155	1.31	0
2	176	1.41	0
2	197	1.51	0
2	218	1.61	0
2	239	1.71	0
2	260	1.81	0
2	281	1.91	0
2	303	2.01	0
2	324	2.11	0
2	345	2.21	0
2	366	2.31	0
2	387	2.41	0
2	408	2.51	0
2	429	2.61	0
2	450	2.71	0
2	471	2.81	0
2	492	2.91	0
2	514	3.01	0
2	535	3.11	0
2	556	3.21	0
2	577	3.31	0
2	598	3.41	0
2	619	3.51	0
2	640	3.61	0
2	661	3.71	0
2	682	3.81	0
2	703	3.91	0
2	725	4.01	0
2	746	4.11	0
2	767	4.21	0
2	788	4.31	0
2	809	4.41	0
2	830	4.51	0
2	851	4.61	0
2	872	4.71	0
2	893	4.81	0
2	914	4.91	0
2	937	5.01	0
2	958	5.11	0
2	979	5.21	0
2	1000	5.31	0
2	1021	5.41	0
2	1042	5.51	0
2	1063	5.61	0
2	1084	5.71	0
2	1105	5.81	0
2	1126	5.91	0
2	1148	6.01	0
2	1169	6.11	0
2	1190	6.21	0
2	1211	6.31	0
2	1232	6.41	0
2	1253	6.51	0
2	1274	6.61	0
2	1295	6.71	0
2	1316	6.81	0
2	1337	6.91	0
2	1359	7.01	0
2	1380	7.11	0
2	1401	7.21	0
2	1422	7.31	0
2	1443	7.41	0
2	1464	7.51	0
2	1485	7.61	0
2	1506	7.71	0
2	1527	7.81	0
2	1548	7.91	0
2	1570	8.01	0
2	1591	8.11	0
2	1612	8.21	0
2	1633	8.31	0
2	1654	8.41	0
2	1675	8.51	0
2	1696	8.61	0
2	1717	8.71	0
2	1738	8.81	0
2	1759	8.91	0
2	1781	9.01	0
2	1802	9.11	0
2	1823	9.21	0
2	1844	9.31	0
2	1865	9.41	0
2	1886	9.51	0
2	1907	9.61	0
2	1928	9.71	0
2	1949	9.81	0
2	1970	9.91	0
2	1992	10.01	0
2	2013	10.11	0
2	2034	10.21	0
2	2055	10.31	0
2	2076	10.41	0
2	2097	10.51	0
2	2118	10.61	0
2	2139	10.71	0
2	2160	10.81	0
2	2181	10.91	0
2	2203	11.01	0
2	2224	11.11	0
2	2245	11.21	0
2	2266	11.31	0
2	2287	11.41	0
2	2308	11.51	0
2	2329	11.61	0
2	2350	11.71	0
2	2371	11.81	0
2	2392	11.91	0
2	2414	12.01	0
2	2435	12.11	0
2	2456	12.21	0
2	2477	12.31	0
2	2498	12.41	0
2	2519	12.51	0
2	2540	12.61	0
2	2561	12.71	0
2	2582	12.81	0
2	2603	12.91	0
2	2625	13.01	0
2	2646	13.11	0
2	2667	13.21	0
2	2688	13.31	0
2	2709	13.41	0
2	2730	13.51	0
2	2751	13.61	0
2	2772	13.71	0
2	2793	13.81	0
2	2814	13.91	0
2	2836	14.01	0
2	2857	14.11	0
2	2878	14.21	0
2	2899	14.31	0
2	2920	14.41	0
2	2941	14.51	0
2	2962	14.61	0
2	2983	14.71	0
2	3004	14.81	0
2	3025	14.91	0
2	3047	15.01	0
2	3068	15.11	0
2	3089	15.21	0
2	3110	15.31	0
2	3131	15.41	0
2	3152	15.51	0
2	3173	15.61	0
2	3194	15.71	0
2	3215	15.81	0
2	3236	15.91	0
2	3258	16.01	0
2	3279	16.11	0
2	3300	16.21	0
2	3321	16.31	0
2	3342	16.41	0
2	3363	16.51	0
2	3384	16.61	0
2	3405	16.71	0
2	3426	16.81	0
2	3447	16.91	0
2	3469	17.01	0
2	3490	17.11	0
2	3511	17.21	0
2	3532	17.31	0
2	3553	17.41	0
2	3574	17.51	0
2	3595	17.61	0
2	3616	17.71	0
2	3637	17.81	0
2	3658	17.91	0
2	3680	18.01	0
2	3701	18.11	0
2	3722	18.21	0
2	3743	18.31	0
2	3764	18.41	0
2	3785	18.51	0
2	3806	18.61	0
2	3827	18.71	0
2	3848	18.81	0
2	3869	18.91	0
2	3891	19.01	0
2	3912	19.11	0
2	3933	19.21	0
2	3954	19.31	0
2	3975	19.41	0
2	3996	19.51	0
2	4017	19.61	0
2	4038	19.71	0
2	4059	19.81	0
2	4080	19.91	0
2	4102	20.01	0
2	4123	20.11	0
2	4144	20.21	0
2	4165	20.31	0
2	4186	20.41	0
2	4207	20.51	0
2	4228	20.61	0
2	4249	20.71	0
2	4270	20.81	0
2	4291	20.91	0
2	4313	21.01	0
2	4334	21.11	0
2	4355	21.21	0
2	4376	21.31	0
2	4397	21.41	0
2	4418	21.51	0
2	4439	21.61	0
2	4460	21.71	0
2	4481	21.81	0
2	4502	21.91	0
2	4524	22.01	0
2	4545	22.11	0
2	4566	22.21	0
2	4587	22.31	0
2	4608	22.41	0
2	4629	22.51	0
2	4650	22.61	0
2	4671	22.71	0
2	4692	22.81	0
2	4713	22.91	0
2	4735	23.01	0
2	4756	23.11	0
2	4777	23.21	0
2	4798	23.31	0
2	4819	23.41	0
2	4840	23.51	0
2	4861	23.61	0
2	4882	23.71	0
2	4903	23.81	0
2	4924	23.91	0
2	4946	24.01	0
2	4967	24.11	0
2	4988	24.21	0
2	5009	24.31	0
2	5030	24.41	0
2	5051	24.51	0
2	5072	24.61	0
2	5093	24.71	0
2	5114	24.81	0
2	5135	24.91	0
2	5157	25.01	0
2	5178	25.11	0
2	5199	25.21	0
2	5220	25.31	0
2	5241	25.41	0
2	5262	25.51	0
2	5283	25.61	0
2	5304	25.71	0
2	5325	25.81	0
2	5346	25.91	0
2	5368	26.01	0
2	5389	26.11	0
2	5410	26.21	0
2	5431	26.31	0
2	5452	26.41	0
2	5473	26.51	0
2	5494	26.61	0
2	5515	26.71	0
2	5536	26.81	0
2	5557	26.91	0
2	5579	27.01	0
2	5600	27.11	0
2	5621	27.21	0
2	5642	27.31	0
2	5663	27.41	0
2	5684	27.51	0
2	5705	27.61	0
2	5726	27.71	0
2	5747	27.81	0
2	5768	27.91	0
2	5790	28.01	0
2	5811	28.11	0
2	5832	28.21	0
2	5853	28.31	0
2	5874	28.41	0
2	5895	28.51	0
2	5916	28.61	0
2	5937	28.71	0
2	5958	28.81	0
2	5979	28.91	0
2	6001	29.01	0
2	6022	29.11	0
2	6043	29.21	0
2	6064	29.31	0
2	6085	29.41	0
2	6106	29.51	0
2	6127	29.61	0
2	6148	29.71	0
2	6169	29.81	0
2	6190	29.91	0
2	6212	30.01	0
2	6233	30.11	0
2	6254	30.21	0
2	6275	30.31	0
2	6296	30.41	0
2	6317	30.51	0
2	6338	30.61	0
2	6359	30.71	0
2	6380	30.81	0
2	6401	30.91	0
2	6423	31.01	0
2	6444	31.11	0
2	6465	31.21	0
2	6486	31.31	0
2	6507	31.41	0
2	6528	31.51	0
2	6549	31.61	0
2	6570	31.71	0
2	6591	31.81	0
2	6612	31.91	0
2	6634	32.01	0
2	6655	32.11	0
2	6676	32.21	0
2	6697	32.31	0
2	6718	32.41	0
2	6739	32.51	0
2	6760	32.61	0
2	6781	32.71	0
2	6802	32.81	0
2	6823	32.91	0
2	6845	33.01	0
2	6866	33.11	0
2	6887	33.21	0
2	6908	33.31	0
2	6929	33.41	0
2	6950	33.51	0
2	6971	33.61	0
2	6992	33.71	0
2	7013	33.81	0
2	7034	33.91	0
2	7056	34.01	0
2	7077	34.11	0
2	7098	34.21	0
2	7119	34.31	0
2	7140	34.41	0
2	7161	34.51	0
2	7182	34.61	0
2	7203	34.71	0
2	7224	34.81	0
2	7245	34.91	0
2	7267	35.01	0
2	7288	35.11	0
2	7309	35.21	0
2	7330	35.31	0
2	7351	35.41	0
2	7372	35.51	0
2	7393	35.61	0
2	7414	35.71	0
2	7435	35.81	0
2	7456	35.91	0
2	7478	36.01	0
2	7499	36.11	0
2	7520	36.21	0
2	7541	36.31	0
2	7562	36.41	0
2	7583	36.51	0
2	7604	36.61	0
2	7625	36.71	0
2	7646	36.81	0
2	7667	36.91	0
2	7689	37.01	0
2	7710	37.11	0
2	7731	37.21	0
2	7752	37.31	0
2	7773	37.41	0
2	7794	37.51	0
2	7815	37.61	0
2	7836	37.71	0
2	7857	37.81	0
2	7878	37.91	0
2	7900	38.01	0
2	7921	38.11	0
2	7942	38.21	0
2	7963	38.31	0
2	7984	38.41	0
2	8005	38.51	0
2	8026	38.61	0
2	8047	38.71	0
2	8068	38.81	0
2	8089	38.91	0
2	8111	39.01	0
2	8132	39.11	0
2	8153	39.21	0
2	8174	39.31	0
2	8195	39.41	0
2	8216	39.51	0
2	8237	39.61	0
2	8258	39.71	0
2	8279	39.81	0
2	8300	39.91	0
2	8322	40.01	0
2	8343	40.11	0
2	8364	40.21	0
2	8385	40.31	0
2	8406	40.41	0
2	8427	40.51	0
2	8448	40.61	0
2	8469	40.71	0
2	8490	40.81	0
2	8511	40.91	0
2	8533	41.01	0
2	8554	41.11	0
2	8575	41.21	0
2	8596	41.31	0
2	8617	41.41	0
2	8638	41.51	0
2	8659	41.61	0
2	8680	41.71	0
2	8701	41.81	0
2	8722	41.91	0
2	8744	42.01	0
2	8765	42.11	0
2	8786	42.21	0
2	8807	42.31	0
2	8828	42.41	0
2	8849	42.51	0
2	8870	42.61	0
2	8891	42.71	0
2	8912	42.81	0
2	8933	42.91	0
2	8955	43.01	0
2	8976	43.11	0
2	8997	43.21	0
2	9018	43.31	0
2	9039	43.41	0
2	9060	43.51	0
2	9081	43.61	0
2	9102	43.71	0
2	9123	43.81	0
2	9144	43.91	0
2	9166	44.01	0
2	9187	44.11	0
2	9208	44.21	0
2	9229	44.31	0
2	9250	44.41	0
2	9271	44.51	0
2	9292	44.61	0
2	9313	44.71	0
2	9334	44.81	0
2	9355	44.91	0
2	9377	45.01	0
2	9398	45.11	0
2	9419	45.21	0
2	9440	45.31	0
2	9461	45.41	0
2	9482	45.51	0
2	9503	45.61	0
2	9524	45.71	0
2	9545	45.81	0
2	9566	45.91	0
2	9588	46.01	0
2	9609	46.11	0
2	9630	46.21	0
2	9651	46.31	0
2	9672	46.41	0
2	9693	46.51	0
2	9714	46.61	0
2	9735	46.71	0
2	9756	46.81	0
2	9777	46.91	0
2	9799	47.01	0
2	9820	47.11	0
2	9841	47.21	0
2	9862	47.31	0
2	9883	47.41	0
2	9904	47.51	0
2	9925	47.61	0
2	9946	47.71	0
2	9967	47.81	0
2	9988	47.91	0
2	10010	48.01	0
2	10031	48.11	0
2	10052	48.21	0
2	10073	48.31	0
2	10094	48.41	0
2	10115	48.51	0
2	10136	48.61	0
2	10157	48.71	0
2	10178	48.81	0
2	10199	48.91	0
2	10221	49.01	0
2	10242	49.11	0
2	10263	49.21	0
2	10284	49.31	0
2	10305	49.41	0
2	10326	49.51	0
2	10347	49.61	0
2	10368	49.71	0
2	10389	49.81	0
2	10410	49.91	0
2	10432	50.01	0
2	10453	50.11	0
2	10474	50.21	0
2	10495	50.31	0
2	10516	50.41	0
2	10537	50.51	0
2	10558	50.61	0
2	10579	50.71	0
2	10600	50.81	0
2	10621	50.91	0
2	10643	51.01	0
2	10664	51.11	0
2	10685	51.21	0
2	10706	51.31	0
2	10727	51.41	0
2	10748	51.51	0
2	10769	51.61	0
2	10790	51.71	0
2	10811	51.81	0
2	10832	51.91	0
2	10854	52.01	0
2	10875	52.11	0
2	10896	52.21	0
2	10917	52.31	0
2	10938	52.41	0
2	10959	52.51	0
2	10980	52.61	0
2	11001	52.71	0
2	11022	52.81	0
2	11043	52.91	0
2	11065	53.01	0
2	11086	53.11	0
2	11107	53.21	0
2	11128	53.31	0
2	11149	53.41	0
2	11170	53.51	0
2	11191	53.61	0
2	11212	53.71	0
2	11233	53.81	0
2	11254	53.91	0
2	11276	54.01	0
2	11297	54.11	0
2	11318	54.21	0
2	11339	54.31	0
2	11360	54.41	0
2	11381	54.51	0
2	11402	54.61	0
2	11423	54.71	0
2	11444	54.81	0
2	11465	54.91	0
2	11487	55.01	0
2	11508	55.11	0
2	11529	55.21	0
2	11550	55.31	0
2	11571	55.41	0
2	11592	55.51	0
2	11613	55.61	0
2	11634	55.71	0
2	11655	55.81	0
2	11676	55.91	0
2	11698	56.01	0
2	11719	56.11	0
2	11740	56.21	0
2	11761	56.31	0
2	11782	56.41	0
2	11803	56.51	0
2	11824	56.61	0
2	11845	56.71	0
2	11866	56.81	0
2	11887	56.91	0
2	11909	57.01	0
2	11930	57.11	0
2	11951	57.21	0
2	11972	57.31	0
2	11993	57.41	0
2	12014	57.51	0
2	12035	57.61	0
2	12056	57.71	0
2	12077	57.81	0
2	12098	57.91	0
2	12120	58.01	0
2	12141	58.11	0
2	12162	58.21	0
2	12183	58.31	0
2	12204	58.41	0
2	12225	58.51	0
2	12246	58.61	0
2	12267	58.71	0
2	12288	58.81	0
2	12309	58.91	0
2	12331	59.01	0
2	12352	59.11	0
2	12373	59.21	0
2	12394	59.31	0
2	12415	59.41	0
2	12436	59.51	0
2	12457	59.61	0
2	12478	59.71	0
2	12499	59.81	0
2	12520	59.91	0
2	12542	60.01	0
2	12563	60.11	0
2	12584	60.21	0
2	12605	60.31	0
2	12626	60.41	0
2	12647	60.51	0
2	12668	60.61	0
2	12689	60.71	0
2	12710	60.81	0
2	12731	60.91	0
2	12753	61.01	0
2	12774	61.11	0
2	12795	61.21	0
2	12816	61.31	0
2	12837	61.41	0
2	12858	61.51	0
2	12879	61.61	0
2	12900	61.71	0
2	12921	61.81	0
2	12942	61.91	0
2	12964	62.01	0
2	12985	62.11	0
2	13006	62.21	0
2	13027	62.31	0
2	13048	62.41	0
2	13069	62.51	0
2	13090	62.61	0
2	13111	62.71	0
2	13132	62.81	0
2	13153	62.91	0
2	13175	63.01	0
2	13196	63.11	0
2	13217	63.21	0
2	13238	63.31	0
2	13259	63.41	0
2	13280	63.51	0
2	13301	63.61	0
2	13322	63.71	0
2	13343	63.81	0
2	13364	63.91	0
2	13386	64.01	0
2	13407	64.11	0
2	13428	64.21	0
2	13449	64.31	0
2	13470	64.41	0
2	13491	64.51	0
2	13512	64.61	0
2	13533	64.71	0
2	13554	64.81	0
2	13575	64.91	0
2	13597	65.01	0
2	13618	65.11	0
2	13639	65.21	0
2	13660	65.31	0
2	13681	65.41	0
2	13702	65.51	0
2	13723	65.61	0
2	13744	65.71	0
2	13765	65.81	0
2	13786	65.91	0
2	13808	66.01	0
2	13829	66.11	0
2	13850	66.21	0
2	13871	66.31	0
2	13892	66.41	0
2	13913	66.51	0
2	13934	66.61	0
2	13955	66.71	0
2	13976	66.81	0
2	13997	66.91	0
2	14019	67.01	0
2	14040	67.11	0
2	14061	67.21	0
2	14082	67.31	0
2	14103	67.41	0
2	14124	67.51	0
2	14145	67.61	0
2	14166	67.71	0
2	14187	67.81	0
2	14208	67.91	0
2	14230	68.01	0
2	14251	68.11	0
2	14272	68.21	0
2	14293	68.31	0
2	14314	68.41	0
2	14335	68.51	0
2	14356	68.61	0
2	14377	68.71	0
2	14398	68.81	0
2	14419	68.91	0
2	14441	69.01	0
2	14462	69.11	0
2	14483	69.21	0
2	14504	69.31	0
2	14525	69.41	0
2	14546	69.51	0
2	14567	69.61	0
2	14588	69.71	0
2	14609	69.81	0
2	14630	69.91	0
2	14652	70.01	0
2	14673	70.11	0
2	14694	70.21	0
2	14715	70.31	0
2	14736	70.41	0
2	14757	70.51	0
2	14778	70.61	0
2	14799	70.71	0
2	14820	70.81	0
2	14841	70.91	0
2	14863	71.01	0
2	14884	71.11	0
2	14905	71.21	0
2	14926	71.31	0
2	14947	71.41	0
2	14968	71.51	0
2	14989	71.61	0
2	15010	71.71	0
2	15031	71.81	0
2	15052	71.91	0
2	15074	72.01	0
2	15095	72.11	0
2	15116	72.21	0
2	15137	72.31	0
2	15158	72.41	0
2	15179	72.51	0
2	15200	72.61	0
2	15221	72.71	0
2	15242	72.81	0
2	15263	72.91	0
2	15285	73.01	0
2	15306	73.11	0
2	15327	73.21	0
2	15348	73.31	0
2	15369	73.41	0
2	15390	73.51	0
2	15411	73.61	0
2	15432	73.71	0
2	15453	73.81	0
2	15474	73.91	0
2	15496	74.01	0
2	15517	74.11	0
2	15538	74.21	0
2	15559	74.31	0
2	15580	74.41	0
2	15601	74.51	0
2	15622	74.61	0
2	15643	74.71	0
2	15664	74.81	0
2	15685	74.91	0
2	15708	75.01	0
2	15729	75.11	0
2	15750	75.21	0
2	15771	75.31	0
2	15792	75.41	0
2	15813	75.51	0
2	15834	75.61	0
2	15855	75.71	0
2	15876	75.81	0
2	15897	75.91	0
2	15919	76.01	0
2	15940	76.11	0
2	15961	76.21	0
2	15982	76.31	0
2	16003	76.41	0
2	16024	76.51	0
2	16045	76.61	0
2	16066	76.71	0
2	16087	76.81	0
2	16108	76.91	0
2	16130	77.01	0
2	16151	77.11	0
2	16172	77.21	0
2	16193	77.31	0
2	16214	77.41	0
2	16235	77.51	0
2	16256	77.61	0
2	16277	77.71	0
2	16298	77.81	0
2	16319	77.91	0
2	16341	78.01	0
2	16362	78.11	0
2	16383	78.21	0
2	16404	78.31	0
2	16425	78.41	0
2	16446	78.51	0
2	16467	78.61	0
2	16488	78.71	0
2	16509	78.81	0
2	16530	78.91	0
2	16552	79.01	0
2	16573	79.11	0
2	16594	79.21	0
2	16615	79.31	0
2	16636	79.41	0
2	16657	79.51	0
2	16678	79.61	0
2	16699	79.71	0
2	16720	79.81	0
2	16741	79.91	0
2	16763	80.01	0
2	16784	80.11	0
2	16805	80.21	0
2	16826	80.31	0
2	16847	80.41	0
2	16868	80.51	0
2	16889	80.61	0
2	16910	80.71	0
2	16931	80.81	0
2	16952	80.91	0
2	16974	81.01	0
2	16995	81.11	0
2	17016	81.21	0
2	17037	81.31	0
2	17058	81.41	0
2	17079	81.51	0
2	17100	81.61	0
2	17121	81.71	0
2	17142	81.81	0
2	17163	81.91	0
2	17185	82.01	0
2	17206	82.11	0
2	17227	82.21	0
2	17248	82.31	0
2	17269	82.41	0
2	17290	82.51	0
2	17311	82.61	0
2	17332	82.71	0
2	17353	82.81	0
2	17374	82.91	0
2	17396	83.01	0
2	17417	83.11	0
2	17438	83.21	0
2	17459	83.31	0
2	17480	83.41	0
2	17501	83.51	0
2	17522	83.61	0
2	17543	83.71	0
2	17564	83.81	0
2	17585	83.91	0
2	17607	84.01	0
2	17628	84.11	0
2	17649	84.21	0
2	17670	84.31	0
2	17691	84.41	0
2	17712	84.51	0
2	17733	84.61	0
2	17754	84.71	0
2	17775	84.81	0
2	17796	84.91	0
2	17818	85.01	0
2	17839	85.11	0
2	17860	85.21	0
2	17881	85.31	0
2	17902	85.41	0
2	17923	85.51	0
2	17944	85.61	0
2	17965	85.71	0
2	17986	85.81	0
2	18007	85.91	0
2	18029	86.01	0
2	18050	86.11	0
2	18071	86.21	0
2	18092	86.31	0
2	18113	86.41	0
2	18134	86.51	0
2	18155	86.61	0
2	18176	86.71	0
2	18197	86.81	0
2	18218	86.91	0
2	18240	87.01	0
2	18261	87.11	0
2	18282	87.21	0
2	18303	87.31	0
2	18324	87.41	0
2	18345	87.51	0
2	18366	87.61	0
2	18387	87.71	0
2	18408	87.81	0
2	18429	87.91	0
2	18451	88.01	0
2	18472	88.11	0
2	18493	88.21	0
2	18514	88.31	0
2	18535	88.41	0
2	18556	88.51	0
2	18577	88.61	0
2	18598	88.71	0
2	18619	88.81	0
2	18640	88.91	0
2	18662	89.01	0
2	18683	89.11	0
2	18704	89.21	0
2	18725	89.31	0
2	18746	89.41	0
2	18767	89.51	0
2	18788	89.61	0
2	18809	89.71	0
2	18830	89.81	0
2	18851	89.91	0
2	18873	90.01	0
2	18894	90.11	0
2	18915	90.21	0
2	18936	90.31	0
2	18957	90.41	0
2	18978	90.51	0
2	18999	90.61	0
2	19020	90.71	0
2	19041	90.81	0
2	19062	90.91	0
2	19084	91.01	0
2	19105	91.11	0
2	19126	91.21	0
2	19147	91.31	0
2	19168	91.41	0
2	19189	91.51	0
2	19210	91.61	0
2	19231	91.71	0
2	19252	91.81	0
2	19273	91.91	0
2	19295	92.01	0
2	19316	92.11	0
2	19337	92.21	0
2	19358	92.31	0
2	19379	92.41	0
2	19400	92.51	0
2	19421	92.61	0
2	19442	92.71	0
2	19463	92.81	0
2	19484	92.91	0
2	19506	93.01	0
2	19527	93.11	0
2	19548	93.21	0
2	19569	93.31	0
2	19590	93.41	0
2	19611	93.51	0
2	19632	93.61	0
2	19653	93.71	0
2	19674	93.81	0
2	19695	93.91	0
2	19717	94.01	0
2	19738	94.11	0
2	19759	94.21	0
2	19780	94.31	0
2	19801	94.41	0
2	19822	94.51	0
2	19843	94.61	0
2	19864	94.71	0
2	19885	94.81	0
2	19906	94.91	0
2	19928	95.01	0
2	19949	95.11	0
2	19970	95.21	0
2	19991	95.31	0
2	20012	95.41	0
2	20033	95.51	0
2	20054	95.61	0
2	20075	95.71	0
2	20096	95.81	0
2	20117	95.91	0
2	20139	96.01	0
2	20160	96.11	0
2	20181	96.21	0
2	20202	96.31	0
2	20223	96.41	0
2	20244	96.51	0
2	20265	96.61	0
2	20286	96.71	0
2	20307	96.81	0
2	20328	96.91	0
2	20350	97.01	0
2	20371	97.11	0
2	20392	97.21	0
2	20413	97.31	0
2	20434	97.41	0
2	20455	97.51	0
2	20476	97.61	0
2	20497	97.71	0
2	20518	97.81	0
2	20539	97.91	0
2	20561	98.01	0
2	20582	98.11	0
2	20603	98.21	0
2	20624	98.31	0
2	20645	98.41	0
2	20666	98.51	0
2	20687	98.61	0
2	20708	98.71	0
2	20729	98.81	0
2	20750	98.91	0
2	20772	99.01	0
2	20793	99.11	0
2	20814	99.21	0
2	20835	99.31	0
2	20856	99.41	0
2	20877	99.51	0
2	20898	99.61	0
2	20919	99.71	0
2	20940	99.81	0
2	20961	99.91	0
3	113	1.11	0
3	134	1.21	0
3	155	1.31	0
3	176	1.41	0
3	197	1.51	0
3	218	1.61	0
3	239	1.71	0
3	260	1.81	0
3	281	1.91	0
3	303	2.01	0
3	324	2.11	0
3	345	2.21	0
3	366	2.31	0
3	387	2.41	0
3	408	2.51	0
3	429	2.61	0
3	450	2.71	0
3	471	2.81	0
3	492	2.91	0
3	514	3.01	0
3	535	3.11	0
3	556	3.21	0
3	577	3.31	0
3	598	3.41	0
3	619	3.51	0
3	640	3.61	0
3	661	3.71	0
3	682	3.81	0
3	703	3.91	0
3	725	4.01	0
3	746	4.11	0
3	767	4.21	0
3	788	4.31	0
3	809	4.41	0
3	830	4.51	0
3	851	4.61	0
3	872	4.71	0
3	893	4.81	0
3	914	4.91	0
3	937	5.01	0.869565
3	958	5.11	3.01278
3	979	5.21	3.01271
3	1000	5.31	3.01258
3	1021	5.41	3.01241
3	1042	5.51	3.01218
3	1063	5.61	3.01189
3	1084	5.71	3.01156
3	1105	5.81	3.01117
3	1126	5.91	3.01073
3	1148	6.01	3.01024
3	1169	6.11	3.00969
3	1190	6.21	3.14583
3	1211	6.31	3.29049
3	1232	6.41	3.39537
3	1253	6.51	3.46983
3	1274	6.61	3.52228
3	1295	6.71	3.55964
3	1316	6.81	3.58732
3	1337	6.91	3.60936
3	1359	7.01	3.62867
3	1380	7.11	3.64729
3	1401	7.21	3.66652
3	1422	7.31	3.6871
3	1443	7.41	3.70936
3	1464	7.51	3.73323
3	1485	7.61	3.75835
3	1506	7.71	3.78408
3	1527	7.81	3.80957
3	1548	7.91	3.83375
3	1570	8.01	3.85535
3	1591	8.11	3.87296
3	1612	8.21	3.88504
3	1633	8.31	3.88993
3	1654	8.41	3.88596
3	1675	8.51	3.87147
3	1696	8.61	3.84489
3	1717	8.71	3.80483
3	1738	8.81	3.75013
3	1759	8.91	3.68001
3	1781	9.01	3.59407
3	1802	9.11	3.49236
3	1823	9.21	3.37546
3	1844	9.31	3.24441
3	1865	9.41	2.04485
3	1886	9.51	2.04797
3	1907	9.61	2.05106
3	1928	9.71	2.05412
3	1949	9.81	2.05714
3	1970	9.91	2.06008
3	1992	10.01	2.06294
3	2013	10.11	2.06569
3	2034	10.21	2.06831
3	2055	10.31	2.07079
3	2076	10.41	2.07309
3	2097	10.51	2.0752
3	2118	10.61	2.07709
3	2139	10.71	2.07874
3	2160	10.81	2.08012
3	2181	10.91	2.08121
3	2203	11.01	2.08198
3	2224	11.11	2.08241
3	2245	11.21	2.08247
3	2266	11.31	2.08213
3	2287	11.41	2.08137
3	2308	11.51	2.08016
3	2329	11.61	2.07848
3	2350	11.71	2.07629
3	2371	11.81	2.07358
3	2392	11.91	2.07032
3	2414	12.01	2.06648
3	2435	12.11	2.06204
3	2456	12.21	2.05698
3	2477	12.31	2.05127
3	2498	12.41	2.0449
3	2519	12.51	2.03785
3	2540	12.61	2.03009
3	2561	12.71	2.02161
3	2582	12.81	2.0124
3	2603	12.91	2.00244
3	2625	13.01	1.99172
3	2646	13.11	1.98023
3	2667	13.21	1.96796
3	2688	13.31	1.95491
3	2709	13.41	1.94108
3	2730	13.51	1.92646
3	2751	13.61	1.91105
3	2772	13.71	1.89487
3	2793	13.81	1.8779
3	2814	13.91	1.86017
3	2836	14.01	1.84168
3	2857	14.11	1.82245
3	2878	14.21	1.80249
3	2899	14.31	1.78182
3	2920	14.41	1.76046
3	2941	14.51	1.73843
3	2962	14.61	1.71576
3	2983	14.71	1.69247
3	3004	14.81	1.6686
3	3025	14.91	1.64416
3	3047	15.01	1.23189
3	3068	15.11	1.23101
3	3089	15.21	1.2301
3	3110	15.31	1.22915
3	3131	15.41	1.22817
3	3152	15.51	1.22714
3	3173	15.61	1.22608
3	3194	15.71	1.22497
3	3215	15.81	1.22383
3	3236	15.91	1.22264
3	3258	16.01	1.22141
3	3279	16.11	1.22013
3	3300	16.21	1.21881
3	3321	16.31	1.21745
3	3342	16.41	1.21603
3	3363	16.51	1.21457
3	3384	16.61	1.21306
3	3405	16.71	1.2115
3	3426	16.81	1.20989
3	3447	16.91	1.20823
3	3469	17.01	1.20652
3	3490	17.11	1.20475
3	3511	17.21	1.20293
3	3532	17.31	1.20106
3	3553	17.41	1.19913
3	3574	17.51	1.19715
3	3595	17.61	1.1951
3	3616	17.71	1.193
3	3637	17.81	1.19085
3	3658	17.91	1.18863
3	3680	18.01	1.18635
3	3701	18.11	1.18402
3	3722	18.21	1.18162
3	3743	18.31	1.17916
3	3764	18.41	1.17664
3	3785	18.51	1.17405
3	3806	18.61	1.17141
3	3827	18.71	1.1687
3	3848	18.81	1.16592
3	3869	18.91	1.16309
3	3891	19.01	1.16018
3	3912	19.11	1.15721
3	3933	19.21	1.15418
3	3954	19.31	1.15108
3	3975	19.41	1.14791
3	3996	19.51	1.14468
3	4017	19.61	1.14138
3	4038	19.71	1.13802
3	4059	19.81	1.13458
3	4080	19.91	1.13108
3	4102	20.01	1.12752
3	4123	20.11	1.12388
3	4144	20.21	1.12018
3	4165	20.31	1.11641
3	4186	20.41	1.11257
3	4207	20.51	1.10867
3	4228	20.61	1.1047
3	4249	20.71	1.10066
3	4270	20.81	1.09656
3	4291	20.91	1.09239
3	4313	21.01	1.08815
3	4334	21.11	1.08384
3	4355	21.21	1.07948
3	4376	21.31	1.07504
3	4397	21.41	1.07054
3	4418	21.51	1.06598
3	4439	21.61	1.06135
3	4460	21.71	1.05666
3	4481	21.81	1.0519
3	4502	21.91	1.04709
3	4524	22.01	1.04221
3	4545	22.11	1.03727
3	4566	22.21	1.03227
3	4587	22.31	1.02721
3	4608	22.41	1.02209
3	4629	22.51	1.01691
3	4650	22.61	1.01167
3	4671	22.71	1.00638
3	4692	22.81	1.00103
3	4713	22.91	0.995626
3	4735	23.01	0.990169
3	4756	23.11	0.984658
3	4777	23.21	0.979095
3	4798	23.31	0.973481
3	4819	23.41	0.967817
3	4840	23.51	0.962103
3	4861	23.61	0.956342
3	4882	23.71	0.950534
3	4903	23.81	0.94468
3	4924	23.91	0.938781
3	4946	24.01	0.932839
3	4967	24.11	0.926855
3	4988	24.21	0.920829
3	5009	24.31	0.914764
3	5030	24.41	0.90866
3	5051	24.51	0.902519
3	5072	24.61	0.896342
3	5093	24.71	0.89013
3	5114	24.81	0.883885
3	5135	24.91	0.877608
3	5157	25.01	0.8713
3	5178	25.11	0.864962
3	5199	25.21	0.858596
3	5220	25.31	0.852204
3	5241	25.41	0.845787
3	5262	25.51	0.839345
3	5283	25.61	0.832881
3	5304	25.71	0.826396
3	5325	25.81	0.819891
3	5346	25.91	0.813368
3	5368	26.01	0.806827
3	5389	26.11	0.800271
3	5410	26.21	0.793701
3	5431	26.31	0.787118
3	5452	26.41	0.780524
3	5473	26.51	0.77392
3	5494	26.61	0.636582
3	5515	26.71	0.635155
3	5536	26.81	0.633723
3	5557	26.91	0.632285
3	5579	27.01	0.630842
3	5600	27.11	0.629393
3	5621	27.21	0.627938
3	5642	27.31	0.626478
3	5663	27.41	0.625012
3	5684	27.51	0.623541
3	5705	27.61	0.622064
3	5726	27.71	0.620582
3	5747	27.81	0.619094
3	5768	27.91	0.617601
3	5790	28.01	0.616103
3	5811	28.11	0.614599
3	5832	28.21	0.61309
3	5853	28.31	0.611575
3	5874	28.41	0.610055
3	5895	28.51	0.60853
3	5916	28.61	0.606999
3	5937	28.71	0.605464
3	5958	28.81	0.603923
3	5979	28.91	0.602377
3	6001	29.01	0.600826
3	6022	29.11	0.59927
3	6043	29.21	0.597709
3	6064	29.31	0.596143
3	6085	29.41	0.594571
3	6106	29.51	0.592995
3	6127	29.61	0.591414
3	6148	29.71	0.589828
3	6169	29.81	0.588238
3	6190	29.91	0.586642
3	6212	30.01	0.585042
3	6233	30.11	0.583437
3	6254	30.21	0.581828
3	6275	30.31	0.580214
3	6296	30.41	0.578595
3	6317	30.51	0.576972
3	6338	30.61	0.575344
3	6359	30.71	0.573712
3	6380	30.81	0.572075
3	6401	30.91	0.570434
3	6423	31.01	0.568789
3	6444	31.11	0.567139
3	6465	31.21	0.565486
3	6486	31.31	0.563828
3	6507	31.41	0.562166
3	6528	31.51	0.5605
3	6549	31.61	0.55883
3	6570	31.71	0.557156
3	6591	31.81	0.555478
3	6612	31.91	0.553796
3	6634	32.01	0.552111
3	6655	32.11	0.550421
3	6676	32.21	0.548728
3	6697	32.31	0.547032
3	6718	32.41	0.545332
3	6739	32.51	0.543628
3	6760	32.61	0.541921
3	6781	32.71	0.54021
3	6802	32.81	0.538496
3	6823	32.91	0.536779
3	6845	33.01	0.535058
3	6866	33.11	0.533335
3	6887	33.21	0.531608
3	6908	33.31	0.529878
3	6929	33.41	0.528145
3	6950	33.51	0.526409
3	6971	33.61	0.524671
3	6992	33.71	0.522929
3	7013	33.81	0.521185
3	7034	33.91	0.519438
3	7056	34.01	0.517688
3	7077	34.11	0.515936
3	7098	34.21	0.514181
3	7119	34.31	0.512424
3	7140	34.41	0.510664
3	7161	34.51	0.508902
3	7182	34.61	0.507138
3	7203	34.71	0.505371
3	7224	34.81	0.503603
3	7245	34.91	0.501832
3	7267	35.01	0.500059
3	7288	35.11	0.498285
3	7309	35.21	0.496508
3	7330	35.31	0.49473
3	7351	35.41	0.49295
3	7372	35.51	0.491168
3	7393	35.61	0.489384
3	7414	35.71	0.487599
3	7435	35.81	0.485813
3	7456	35.91	0.484025
3	7478	36.01	0.482236
3	7499	36.11	0.480445
3	7520	36.21	0.478653
3	7541	36.31	0.47686
3	7562	36.41	0.475066
3	7583	36.51	0.473271
3	7604	36.61	0.471475
3	7625	36.71	0.469678
3	7646	36.81	0.46788
3	7667	36.91	0.466082
3	7689	37.01	0.464282
3	7710	37.11	0.462482
3	7731	37.21	0.460682
3	7752	37.31	0.458881
3	7773	37.41	0.45708
3	7794	37.51	0.455278
3	7815	37.61	0.453476
3	7836	37.71	0.451674
3	7857	37.81	0.449871
3	7878	37.91	0.448069
3	7900	38.01	0.446266
3	7921	38.11	0.444463
3	7942	38.21	0.442661
3	7963	38.31	0.440859
3	7984	38.41	0.439057
3	8005	38.51	0.437255
3	8026	38.61	0.435453
3	8047	38.71	0.433652
3	8068	38.81	0.431852
3	8089	38.91	0.430052
3	8111	39.01	0.428253
3	8132	39.11	0.426454
3	8153	39.21	0.424656
3	8174	39.31	0.422859
3	8195	39.41	0.421063
3	8216	39.51	0.419268
3	8237	39.61	0.417473
3	8258	39.71	0.41568
3	8279	39.81	0.413888
3	8300	39.91	0.412097
3	8322	40.01	0.410308
3	8343	40.11	0.408519
3	8364	40.21	0.406732
3	8385	40.31	0.404947
3	8406	40.41	0.403163
3	8427	40.51	0.40138
3	8448	40.61	0.3996
3	8469	40.71	0.397821
3	8490	40.81	0.396043
3	8511	40.91	0.394268
3	8533	41.01	0.392494
3	8554	41.11	0.390722
3	8575	41.21	0.388952
3	8596	41.31	0.387185
3	8617	41.41	0.385419
3	8638	41.51	0.383656
3	8659	41.61	0.381894
3	8680	41.71	0.380135
3	8701	41.81	0.378379
3	8722	41.91	0.376624
3	8744	42.01	0.374872
3	8765	42.11	0.373123
3	8786	42.21	0.371376
3	8807	42.31	0.369632
3	8828	42.41	0.36789
3	8849	42.51	0.366151
3	8870	42.61	0.364415
3	8891	42.71	0.362682
3	8912	42.81	0.360952
3	8933	42.91	0.359224
3	8955	43.01	0.3575
3	8976	43.11	0.355778
3	8997	43.21	0.35406
3	9018	43.31	0.352344
3	9039	43.41	0.350632
3	9060	43.51	0.348923
3	9081	43.61	0.347217
3	9102	43.71	0.345515
3	9123	43.81	0.343816
3	9144	43.91	0.34212
3	9166	44.01	0.340428
3	9187	44.11	0.33874
3	9208	44.21	0.337055
3	9229	44.31	0.335373
3	9250	44.41	0.333695
3	9271	44.51	0.332021
3	9292	44.61	0.33035
3	9313	44.71	0.328684
3	9334	44.81	0.327021
3	9355	44.91	0.325362
3	9377	45.01	0.323707
3	9398	45.11	0.322055
3	9419	45.21	0.320408
3	9440	45.31	0.318765
3	9461	45.41	0.317126
3	9482	45.51	0.315491
3	9503	45.61	0.31386
3	9524	45.71	0.312233
3	9545	45.81	0.31061
3	9566	45.91	0.308992
3	9588	46.01	0.307378
3	9609	46.11	0.305768
3	9630	46.21	0.304162
3	9651	46.31	0.302561
3	9672	46.41	0.300965
3	9693	46.51	0.299372
3	9714	46.61	0.297785
3	9735	46.71	0.296201
3	9756	46.81	0.294623
3	9777	46.91	0.293049
3	9799	47.01	0.291479
3	9820	47.11	0.289914
3	9841	47.21	0.288354
3	9862	47.31	0.286799
3	9883	47.41	0.285248
3	9904	47.51	0.283702
3	9925	47.61	0.282161
3	9946	47.71	0.280624
3	9967	47.81	0.279093
3	9988	47.91	0.277566
3	10010	48.01	0.276044
3	10031	48.11	0.274527
3	10052	48.21	0.273015
3	10073	48.31	0.271508
3	10094	48.41	0.270006
3	10115	48.51	0.268509
3	10136	48.61	0.267017
3	10157	48.71	0.26553
3	10178	48.81	0.264048
3	10199	48.91	0.262571
3	10221	49.01	0.2611
3	10242	49.11	0.259633
3	10263	49.21	0.258172
3	10284	49.31	0.256715
3	10305	49.41	0.255264
3	10326	49.51	0.253818
3	10347	49.61	0.252378
3	10368	49.71	0.250942
3	10389	49.81	0.249512
3	10410	49.91	0.248087
3	10432	50.01	0.246668
3	10453	50.11	0.245253
3	10474	50.21	0.243844
3	10495	50.31	0.242441
3	10516	50.41	0.241042
3	10537	50.51	0.239649
3	10558	50.61	0.238262
3	10579	50.71	0.23688
3	10600	50.81	0.235503
3	10621	50.91	0.234132
3	10643	51.01	0.232766
3	10664	51.11	0.231405
3	10685	51.21	0.23005
3	10706	51.31	0.2287
3	10727	51.41	0.227356
3	10748	51.51	0.226017
3	10769	51.61	0.224684
3	10790	51.71	0.223356
3	10811	51.81	0.222034
3	10832	51.91	0.220717
3	10854	52.01	0.219406
3	10875	52.11	0.2181
3	10896	52.21	0.216799
3	10917	52.31	0.215505
3	10938	52.41	0.214215
3	10959	52.51	0.212932
3	10980	52.61	0.211653
3	11001	52.71	0.210381
3	11022	52.81	0.209113
3	11043	52.91	0.207852
3	11065	53.01	0.206596
3	11086	53.11	0.205345
3	11107	53.21	0.2041
3	11128	53.31	0.20286
3	11149	53.41	0.201627
3	11170	53.51	0.200398
3	11191	53.61	0.199175
3	11212	53.71	0.197958
3	11233	53.81	0.196746
3	11254	53.91	0.19554
3	11276	54.01	0.194339
3	11297	54.11	0.193144
3	11318	54.21	0.191954
3	11339	54.31	0.19077
3	11360	54.41	0.189592
3	11381	54.51	0.188419
3	11402	54.61	0.187251
3	11423	54.71	0.186089
3	11444	54.81	0.184933
3	11465	54.91	0.183782
3	11487	55.01	0.182636
3	11508	55.11	0.181497
3	11529	55.21	0.180362
3	11550	55.31	0.179233
3	11571	55.41	0.17811
3	11592	55.51	0.176992
3	11613	55.61	0.175879
3	11634	55.71	0.174772
3	11655	55.81	0.173671
3	11676	55.91	0.172574
3	11698	56.01	0.171484
3	11719	56.11	0.170399
3	11740	56.21	0.169319
3	11761	56.31	0.168244
3	11782	56.41	0.167175
3	11803	56.51	0.166112
3	11824	56.61	0.165054
3	11845	56.71	0.164001
3	11866	56.81	0.162953
3	11887	56.91	0.161911
3	11909	57.01	0.160875
3	11930	57.11	0.159843
3	11951	57.21	0.158817
3	11972	57.31	0.157797
3	11993	57.41	0.156781
3	12014	57.51	0.155771
3	12035	57.61	0.154766
3	12056	57.71	0.153767
3	12077	57.81	0.152773
3	12098	57.91	0.151784
3	12120	58.01	0.1508
3	12141	58.11	0.149822
3	12162	58.21	0.148848
3	12183	58.31	0.14788
3	12204	58.41	0.146917
3	12225	58.51	0.14596
3	12246	58.61	0.145007
3	12267	58.71	0.14406
3	12288	58.81	0.143118
3	12309	58.91	0.14218
3	12331	59.01	0.141248
3	12352	59.11	0.140322
3	12373	59.21	0.1394
3	12394	59.31	0.138483
3	12415	59.41	0.137571
3	12436	59.51	0.1184
3	12457	59.61	0.117983
3	12478	59.71	0.117568
3	12499	59.81	0.117155
3	12520	59.91	0.116742
3	12542	60.01	0.11633
3	12563	60.11	0.11592
3	12584	60.21	0.115511
3	12605	60.31	0.115103
3	12626	60.41	0.114696
3	12647	60.51	0.114291
3	12668	60.61	0.113886
3	12689	60.71	0.113483
3	12710	60.81	0.113081
3	12731	60.91	0.11268
3	12753	61.01	0.11228
3	12774	61.11	0.111881
3	12795	61.21	0.111483
3	12816	61.31	0.111087
3	12837	61.41	0.110692
3	12858	61.51	0.110298
3	12879	61.61	0.109905
3	12900	61.71	0.109513
3	12921	61.81	0.109122
3	12942	61.91	0.108733
3	12964	62.01	0.108345
3	12985	62.11	0.107957
3	13006	62.21	0.107571
3	13027	62.31	0.107186
3	13048	62.41	0.106802
3	13069	62.51	0.10642
3	13090	62.61	0.106038
3	13111	62.71	0.105658
3	13132	62.81	0.105279
3	13153	62.91	0.1049
3	13175	63.01	0.104523
3	13196	63.11	0.104147
3	13217	63.21	0.103773
3	13238	63.31	0.103399
3	13259	63.41	0.103026
3	13280	63.51	0.102655
3	13301	63.61	0.102285
3	13322	63.71	0.101916
3	13343	63.81	0.101547
3	13364	63.91	0.10118
3	13386	64.01	0.100815
3	13407	64.11	0.10045
3	13428	64.21	0.100086
3	13449	64.31	0.0997236
3	13470	64.41	0.0993622
3	13491	64.51	0.0990018
3	13512	64.61	0.0986426
3	13533	64.71	0.0982844
3	13554	64.81	0.0979273
3	13575	64.91	0.0975714
3	13597	65.01	0.0972165
3	13618	65.11	0.0968627
3	13639	65.21	0.09651
3	13660	65.31	0.0961584
3	13681	65.41	0.0958078
3	13702	65.51	0.0954584
3	13723	65.61	0.09511
3	13744	65.71	0.0947627
3	13765	65.81	0.0944165
3	13786	65.91	0.0940713
3	13808	66.01	0.0937272
3	13829	66.11	0.0933842
3	13850	66.21	0.0930423
3	13871	66.31	0.0927014
3	13892	66.41	0.0923616
3	13913	66.51	0.0920228
3	13934	66.61	0.0916851
3	13955	66.71	0.0913485
3	13976	66.81	0.0910129
3	13997	66.91	0.0906784
3	14019	67.01	0.0903449
3	14040	67.11	0.0900125
3	14061	67.21	0.0896811
3	14082	67.31	0.0893508
3	14103	67.41	0.0890215
3	14124	67.51	0.0886933
3	14145	67.61	0.088366
3	14166	67.71	0.0880399
3	14187	67.81	0.0877147
3	14208	67.91	0.0873907
3	14230	68.01	0.0870676
3	14251	68.11	0.0867455
3	14272	68.21	0.0864245
3	14293	68.31	0.0861046
3	14314	68.41	0.0857856
3	14335	68.51	0.0854677
3	14356	68.61	0.0851507
3	14377	68.71	0.0848348
3	14398	68.81	0.08452
3	14419	68.91	0.0842061
3	14441	69.01	0.0838932
3	14462	69.11	0.0835814
3	14483	69.21	0.0832705
3	14504	69.31	0.0829607
3	14525	69.41	0.0826518
3	14546	69.51	0.082344
3	14567	69.61	0.0820372
3	14588	69.71	0.0817313
3	14609	69.81	0.0814265
3	14630	69.91	0.0811226
3	14652	70.01	0.0808197
3	14673	70.11	0.0805178
3	14694	70.21	0.080217
3	14715	70.31	0.079917
3	14736	70.41	0.0796181
3	14757	70.51	0.0793202
3	14778	70.61	0.0790232
3	14799	70.71	0.0787272
3	14820	70.81	0.0784321
3	14841	70.91	0.0781381
3	14863	71.01	0.077845
3	14884	71.11	0.0775529
3	14905	71.21	0.0772617
3	14926	71.31	0.0769715
3	14947	71.41	0.0766823
3	14968	71.51	0.076394
3	14989	71.61	0.0761067
3	15010	71.71	0.0758203
3	15031	71.81	0.0755349
3	15052	71.91	0.0752504
3	15074	72.01	0.0749669
3	15095	72.11	0.0746843
3	15116	72.21	0.0744026
3	15137	72.31	0.0741219
3	15158	72.41	0.0738422
3	15179	72.51	0.0735633
3	15200	72.61	0.0732854
3	15221	72.71	0.0730085
3	15242	72.81	0.0727324
3	15263	72.91	0.0724573
3	15285	73.01	0.0721831
3	15306	73.11	0.0719098
3	15327	73.21	0.0716375
3	15348	73.31	0.0713661
3	15369	73.41	0.0710956
3	15390	73.51	0.070826
3	15411	73.61	0.0705573
3	15432	73.71	0.0702895
3	15453	73.81	0.0700226
3	15474	73.91	0.0697566
3	15496	74.01	0.0694916
3	15517	74.11	0.0692274
3	15538	74.21	0.0689641
3	15559	74.31	0.0687017
3	15580	74.41	0.0684403
3	15601	74.51	0.0681797
3	15622	74.61	0.06792
3	15643	74.71	0.0676611
3	15664	74.81	0.0674032
3	15685	74.91	0.0671462
3	15708	75.01	-0.888652
3	15729	75.11	-7.7727
3	15750	75.21	-7.74965
3	15771	75.31	-7.72701
3	15792	75.41	-7.70478
3	15813	75.51	-7.68296
3	15834	75.61	-7.66155
3	15855	75.71	-7.64053
3	15876	75.81	-7.61991
3	15897	75.91	-7.59968
3	15919	76.01	-7.57983
3	15940	76.11	-7.56038
3	15961	76.21	-7.5413
3	15982	76.31	-7.5226
3	16003	76.41	-7.50427
3	16024	76.51	-7.48631
3	16045	76.61	-7.46873
3	16066	76.71	-7.4515
3	16087	76.81	-7.43464
3	16108	76.91	-7.41813
3	16130	77.01	-7.40198
3	16151	77.11	-7.38618
3	16172	77.21	-7.37073
3	16193	77.31	-7.35563
3	16214	77.41	-7.34087
3	16235	77.51	-7.32646
3	16256	77.61	-7.31238
3	16277	77.71	-7.29864
3	16298	77.81	-7.28523
3	16319	77.91	-7.27215
3	16341	78.01	-7.25941
3	16362	78.11	-7.24699
3	16383	78.21	-7.2349
3	16404	78.31	-7.22313
3	16425	78.41	-7.21168
3	16446	78.51	-7.20055
3	16467	78.61	-7.18974
3	16488	78.71	-7.17924
3	16509	78.81	-7.16906
3	16530	78.91	-7.15919
3	16552	79.01	-7.14963
3	16573	79.11	-7.14038
3	16594	79.21	-7.13144
3	16615	79.31	-7.1228
3	16636	79.41	-7.11447
3	16657	79.51	-7.10643
3	16678	79.61	-7.09871
3	16699	79.71	-7.09128
3	16720	79.81	-7.08415
3	16741	79.91	-7.07732
3	16763	80.01	-7.07078
3	16784	80.11	-7.06454
3	16805	80.21	-7.0586
3	16826	80.31	-7.05294
3	16847	80.41	-7.04759
3	16868	80.51	-7.04252
3	16889	80.61	-7.03774
3	16910	80.71	-7.03326
3	16931	80.81	-7.02906
3	16952	80.91	-7.02516
3	16974	81.01	-7.02154
3	16995	81.11	-7.01821
3	17016	81.21	-7.01516
3	17037	81.31	-7.0124
3	17058	81.41	-7.00993
3	17079	81.51	-7.00775
3	17100	81.61	-7.00585
3	17121	81.71	-7.00423
3	17142	81.81	-7.0029
3	17163	81.91	-7.00185
3	17185	82.01	-7.00109
3	17206	82.11	-7.00061
3	17227	82.21	-7.00042
3	17248	82.31	0
3	17269	82.41	0
3	17290	82.51	0
3	17311	82.61	0
3	17332	82.71	0
3	17353	82.81	0
3	17374	82.91	0
3	17396	83.01	0
3	17417	83.11	0
3	17438	83.21	0
3	17459	83.31	0
3	17480	83.41	0
3	17501	83.51	0
3	17522	83.61	0
3	17543	83.71	0
3	17564	83.81	0
3	17585	83.91	0
3	17607	84.01	0
3	17628	84.11	0
3	17649	84.21	0
3	17670	84.31	0
3	17691	84.41	0
3	17712	84.51	0
3	17733	84.61	0
3	17754	84.71	0
3	17775	84.81	0
3	17796	84.91	0
3	17818	85.01	0
3	17839	85.11	0
3	17860	85.21	0
3	17881	85.31	0
3	17902	85.41	0
3	17923	85.51	0
3	17944	85.61	0
3	17965	85.71	0
3	17986	85.81	0
3	18007	85.91	0
3	18029	86.01	0
3	18050	86.11	0
3	18071	86.21	0
3	18092	86.31	0
3	18113	86.41	0
3	18134	86.51	0
3	18155	86.61	0
3	18176	86.71	0
3	18197	86.81	0
3	18218	86.91	0
3	18240	87.01	0
3	18261	87.11	0
3	18282	87.21	0
3	18303	87.31	0
3	18324	87.41	0
3	18345	87.51	0
3	18366	87.61	0
3	18387	87.71	0
3	18408	87.81	0
3	18429	87.91	0
3	18451	88.01	0
3	18472	88.11	0
3	18493	88.21	0
3	18514	88.31	0
3	18535	88.41	0
3	18556	88.51	0
3	18577	88.61	0
3	18598	88.71	0
3	18619	88.81	0
3	18640	88.91	0
3	18662	89.01	0
3	18683	89.11	0
3	18704	89.21	0
3	18725	89.31	0
3	18746	89.41	0
3	18767	89.51	0
3	18788	89.61	0
3	18809	89.71	0
3	18830	89.81	0
3	18851	89.91	0
3	18873	90.01	0
3	18894	90.11	0
3	18915	90.21	0
3	18936	90.31	0
3	18957	90.41	0
3	18978	90.51	0
3	18999	90.61	0
3	19020	90.71	0
3	19041	90.81	0
3	19062	90.91	0
3	19084	91.01	0
3	19105	91.11	0
3	19126	91.21	0
3	19147	91.31	0
3	19168	91.41	0
3	19189	91.51	0
3	19210	91.61	0
3	19231	91.71	0
3	19252	91.81	0
3	19273	91.91	0
3	19295	92.01	0
3	19316	92.11	0
3	19337	92.21	0
3	19358	92.31	0
3	19379	92.41	0
3	19400	92.51	0
3	19421	92.61	0
3	19442	92.71	0
3	19463	92.81	0
3	19484	92.91	0
3	19506	93.01	0
3	19527	93.11	0
3	19548	93.21	0
3	19569	93.31	0
3	19590	93.41	0
3	19611	93.51	0
3	19632	93.61	0
3	19653	93.71	0
3	19674	93.81	0
3	19695	93.91	0
3	19717	94.01	0
3	19738	94.11	0
3	19759	94.21	0
3	19780	94.31	0
3	19801	94.41	0
3	19822	94.51	0
3	19843	94.61	0
3	19864	94.71	0
3	19885	94.81	0
3	19906	94.91	0
3	19928	95.01	0
3	19949	95.11	0
3	19970	95.21	0
3	19991	95.31	0
3	20012	95.41	0
3	20033	95.51	0
3	20054	95.61	0
3	20075	95.71	0
3	20096	95.81	0
3	20117	95.91	0
3	20139	96.01	0
3	20160	96.11	0
3	20181	96.21	0
3	20202	96.31	0
3	20223	96.41	0
3	20244	96.51	0
3	20265	96.61	0
3	20286	96.71	0
3	20307	96.81	0
3	20328	96.91	0
3	20350	97.01	0
3	20371	97.11	0
3	20392	97.21	0
3	20413	97.31	0
3	20434	97.41	0
3	20455	97.51	0
3	20476	97.61	0
3	20497	97.71	0
3	20518	97.81	0
3	20539	97.91	0
3	20561	98.01	0
3	20582	98.11	0
3	20603	98.21	0
3	20624	98.31	0
3	20645	98.41	0
3	20666	98.51	0
3	20687	98.61	0
3	20708	98.71	0
3	20729	98.81	0
3	20750	98.91	0
3	20772	99.01	0
3	20793	99.11	0
3	20814	99.21	0
3	20835	99.31	0
3	20856	99.41	0
3	20877	99.51	0
3	20898	99.61	0
3	20919	99.71	0
3	20940	99.81	0
3	20961	99.91	0
4	113	1.11	0
4	134	1.21	0
4	155	1.31	0
4	176	1.41	0
4	197	1.51	0
4	218	1.61	0
4	239	1.71	0
4	260	1.81	0
4	281	1.91	0
4	303	2.01	0
4	324	2.11	0
4	345	2.21	0
4	366	2.31	0
4	387	2.41	0
4	408	2.51	0
4	429	2.61	0
4	450	2.71	0
4	471	2.81	0
4	492	2.91	0
4	514	3.01	0
4	535	3.11	0
4	556	3.21	0
4	577	3.31	0
4	598	3.41	0
4	619	3.51	0
4	640	3.61	0
4	661	3.71	0
4	682	3.81	0
4	703	3.91	0
4	725	4.01	0
4	746	4.11	0
4	767	4.21	0
4	788	4.31	0
4	809	4.41	0
4	830	4.51	0
4	851	4.61	0
4	872	4.71	0
4	893	4.81	0
4	914	4.91	0
4	937	5.01	20
4	958	5.11	20
4	979	5.21	20
4	1000	5.31	20
4	1021	5.41	20
4	1042	5.51	20
4	1063	5.61	20
4	1084	5.71	20
4	1105	5.81	20
4	1126	5.91	20
4	1148	6.01	20
4	1169	6.11	20
4	1190	6.21	20
4	1211	6.31	20
4	1232	6.41	20
4	1253	6.51	20
4	1274	6.61	20
4	1295	6.71	20
4	1316	6.81	20
4	1337	6.91	20
4	1359	7.01	20
4	1380	7.11	20
4	1401	7.21	20
4	1422	7.31	20
4	1443	7.41	20
4	1464	7.51	20
4	1485	7.61	20
4	1506	7.71	20
4	1527	7.81	20
4	1548	7.91	20
4	1570	8.01	20
4	1591	8.11	20
4	1612	8.21	20
4	1633	8.31	20
4	1654	8.41	20
4	1675	8.51	20
4	1696	8.61	20
4	1717	8.71	20
4	1738	8.81	20
4	1759	8.91	20
4	1781	9.01	20
4	1802	9.11	20
4	1823	9.21	20
4	1844	9.31	20
4	1865	9.41	20
4	1886	9.51	20
4	1907	9.61	20
4	1928	9.71	20
4	1949	9.81	20
4	1970	9.91	20
4	1992	10.01	20
4	2013	10.11	20
4	2034	10.21	20
4	2055	10.31	20
4	2076	10.41	20
4	2097	10.51	20
4	2118	10.61	20
4	2139	10.71	20
4	2160	10.81	20
4	2181	10.91	20
4	2203	11.01	20
4	2224	11.11	20
4	2245	11.21	20
4	2266	11.31	20
4	2287	11.41	20
4	2308	11.51	20
4	2329	11.61	20
4	2350	11.71	20
4	2371	11.81	20
4	2392	11.91	20
4	2414	12.01	20
4	2435	12.11	20
4	2456	12.21	20
4	2477	12.31	20
4	2498	12.41	20
4	2519	12.51	20
4	2540	12.61	20
4	2561	12.71	20
4	2582	12.81	20
4	2603	12.91	20
4	2625	13.01	20
4	2646	13.11	20
4	2667	13.21	20
4	2688	13.31	20
4	2709	13.41	20
4	2730	13.51	20
4	2751	13.61	20
4	2772	13.71	20
4	2793	13.81	20
4	2814	13.91	20
4	2836	14.01	20
4	2857	14.11	20
4	2878	14.21	20
4	2899	14.31	20
4	2920	14.41	20
4	2941	14.51	20
4	2962	14.61	20
4	2983	14.71	20
4	3004	14.81	20
4	3025	14.91	20
4	3047	15.01	20
4	3068	15.11	20
4	3089	15.21	20
4	3110	15.31	20
4	3131	15.41	20
4	3152	15.51	20
4	3173	15.61	20
4	3194	15.71	20
4	3215	15.81	20
4	3236	15.91	20
4	3258	16.01	20
4	3279	16.11	20
4	3300	16.21	20
4	3321	16.31	20
4	3342	16.41	20
4	3363	16.51	20
4	3384	16.61	20
4	3405	16.71	20
4	3426	16.81	20
4	3447	16.91	20
4	3469	17.01	20
4	3490	17.11	20
4	3511	17.21	20
4	3532	17.31	20
4	3553	17.41	20
4	3574	17.51	20
4	3595	17.61	20
4	3616	17.71	20
4	3637	17.81	20
4	3658	17.91	20
4	3680	18.01	20
4	3701	18.11	20
4	3722	18.21	20
4	3743	18.31	20
4	3764	18.41	20
4	3785	18.51	20
4	3806	18.61	20
4	3827	18.71	20
4	3848	18.81	20
4	3869	18.91	20
4	3891	19.01	20
4	3912	19.11	20
4	3933	19.21	20
4	3954	19.31	20
4	3975	19.41	20
4	3996	19.51	20
4	4017	19.61	20
4	4038	19.71	20
4	4059	19.81	20
4	4080	19.91	20
4	4102	20.01	20
4	4123	20.11	20
4	4144	20.21	20
4	4165	20.31	20
4	4186	20.41	20
4	4207	20.51	20
4	4228	20.61	20
4	4249	20.71	20
4	4270	20.81	20
4	4291	20.91	20
4	4313	21.01	20
4	4334	21.11	20
4	4355	21.21	20
4	4376	21.31	20
4	4397	21.41	20
4	4418	21.51	20
4	4439	21.61	20
4	4460	21.71	20
4	4481	21.81	20
4	4502	21.91	20
4	4524	22.01	20
4	4545	22.11	20
4	4566	22.21	20
4	4587	22.31	20
4	4608	22.41	20
4	4629	22.51	20
4	4650	22.61	20
4	4671	22.71	20
4	4692	22.81	20
4	4713	22.91	20
4	4735	23.01	20
4	4756	23.11	20
4	4777	23.21	20
4	4798	23.31	20
4	4819	23.41	20
4	4840	23.51	20
4	4861	23.61	20
4	4882	23.71	20
4	4903	23.81	20
4	4924	23.91	20
4	4946	24.01	20
4	4967	24.11	20
4	4988	24.21	20
4	5009	24.31	20
4	5030	24.41	20
4	5051	24.51	20
4	5072	24.61	20
4	5093	24.71	20
4	5114	24.81	20
4	5135	24.91	20
4	5157	25.01	20
4	5178	25.11	20
4	5199	25.21	20
4	5220	25.31	20
4	5241	25.41	20
4	5262	25.51	20
4	5283	25.61	20
4	5304	25.71	20
4	5325	25.81	20
4	5346	25.91	20
4	5368	26.01	20
4	5389	26.11	20
4	5410	26.21	20
4	5431	26.31	20
4	5452	26.41	20
4	5473	26.51	20
4	5494	26.61	20
4	5515	26.71	20
4	5536	26.81	20
4	5557	26.91	20
4	5579	27.01	20
4	5600	27.11	20
4	5621	27.21	20
4	5642	27.31	20
4	5663	27.41	20
4	5684	27.51	20
4	5705	27.61	20
4	5726	27.71	20
4	5747	27.81	20
4	5768	27.91	20
4	5790	28.01	20
4	5811	28.11	20
4	5832	28.21	20
4	5853	28.31	20
4	5874	28.41	20
4	5895	28.51	20
4	5916	28.61	20
4	5937	28.71	20
4	5958	28.81	20
4	5979	28.91	20
4	6001	29.01	20
4	6022	29.11	20
4	6043	29.21	20
4	6064	29.31	20
4	6085	29.41	20
4	6106	29.51	20
4	6127	29.61	20
4	6148	29.71	20
4	6169	29.81	20
4	6190	29.91	20
4	6212	30.01	20
4	6233	30.11	20
4	6254	30.21	20
4	6275	30.31	20
4	6296	30.41	20
4	6317	30.51	20
4	6338	30.61	20
4	6359	30.71	20
4	6380	30.81	20
4	6401	30.91	20
4	6423	31.01	20
4	6444	31.11	20
4	6465	31.21	20
4	6486	31.31	20
4	6507	31.41	20
4	6528	31.51	20
4	6549	31.61	20
4	6570	31.71	20
4	6591	31.81	20
4	6612	31.91	20
4	6634	32.01	20
4	6655	32.11	20
4	6676	32.21	20
4	6697	32.31	20
4	6718	32.41	20
4	6739	32.51	20
4	6760	32.61	20
4	6781	32.71	20
4	6802	32.81	20
4	6823	32.91	20
4	6845	33.01	20
4	6866	33.11	20
4	6887	33.21	20
4	6908	33.31	20
4	6929	33.41	20
4	6950	33.51	20
4	6971	33.61	20
4	6992	33.71	20
4	7013	33.81	20
4	7034	33.91	20
4	7056	34.01	20
4	7077	34.11	20
4	7098	34.21	20
4	7119	34.31	20
4	7140	34.41	20
4	7161	34.51	20
4	7182	34.61	20
4	7203	34.71	20
4	7224	34.81	20
4	7245	34.91	20
4	7267	35.01	20
4	7288	35.11	20
4	7309	35.21	20
4	7330	35.31	20
4	7351	35.41	20
4	7372	35.51	20
4	7393	35.61	20
4	7414	35.71	20
4	7435	35.81	20
4	7456	35.91	20
4	7478	36.01	20
4	7499	36.11	20
4	7520	36.21	20
4	7541	36.31	20
4	7562	36.41	20
4	7583	36.51	20
4	7604	36.61	20
4	7625	36.71	20
4	7646	36.81	20
4	7667	36.91	20
4	7689	37.01	20
4	7710	37.11	20
4	7731	37.21	20
4	7752	37.31	20
4	7773	37.41	20
4	7794	37.51	20
4	7815	37.61	20
4	7836	37.71	20
4	7857	37.81	20
4	7878	37.91	20
4	7900	38.01	20
4	7921	38.11	20
4	7942	38.21	20
4	7963	38.31	20
4	7984	38.41	20
4	8005	38.51	20
4	8026	38.61	20
4	8047	38.71	20
4	8068	38.81	20
4	8089	38.91	20
4	8111	39.01	20
4	8132	39.11	20
4	8153	39.21	20
4	8174	39.31	20
4	8195	39.41	20
4	8216	39.51	20
4	8237	39.61	20
4	8258	39.71	20
4	8279	39.81	20
4	8300	39.91	20
4	8322	40.01	20
4	8343	40.11	20
4	8364	40.21	20
4	8385	40.31	20
4	8406	40.41	20
4	8427	40.51	20
4	8448	40.61	20
4	8469	40.71	20
4	8490	40.81	20
4	8511	40.91	20
4	8533	41.01	20
4	8554	41.11	20
4	8575	41.21	20
4	8596	41.31	20
4	8617	41.41	20
4	8638	41.51	20
4	8659	41.61	20
4	8680	41.71	20
4	8701	41.81	20
4	8722	41.91	20
4	8744	42.01	20
4	8765	42.11	20
4	8786	42.21	20
4	8807	42.31	20
4	8828	42.41	20
4	8849	42.51	20
4	8870	42.61	20
4	8891	42.71	20
4	8912	42.81	20
4	8933	42.91	20
4	8955	43.01	20
4	8976	43.11	20
4	8997	43.21	20
4	9018	43.31	20
4	9039	43.41	20
4	9060	43.51	20
4	9081	43.61	20
4	9102	43.71	20
4	9123	43.81	20
4	9144	43.91	20
4	9166	44.01	20
4	9187	44.11	20
4	9208	44.21	20
4	9229	44.31	20
4	9250	44.41	20
4	9271	44.51	20
4	9292	44.61	20
4	9313	44.71	20
4	9334	44.81	20
4	9355	44.91	20
4	9377	45.01	20
4	9398	45.11	20
4	9419	45.21	20
4	9440	45.31	20
4	9461	45.41	20
4	9482	45.51	20
4	9503	45.61	20
4	9524	45.71	20
4	9545	45.81	20
4	9566	45.91	20
4	9588	46.01	20
4	9609	46.11	20
[...]
7	5072	24.61	242.45
7	5093	24.71	242.45
7	5114	24.81	242.45
7	5135	24.91	242.45
7	5157	25.01	242.45
7	5178	25.11	242.45
7	5199	25.21	242.45
7	5220	25.31	242.45
7	5241	25.41	242.45
7	5262	25.51	242.45
7	5283	25.61	242.45
7	5304	25.71	242.45
7	5325	25.81	242.45
7	5346	25.91	242.45
7	5368	26.01	242.45
7	5389	26.11	242.45
7	5410	26.21	242.45
7	5431	26.31	242.45
7	5452	26.41	242.45
7	5473	26.51	242.45
7	5494	26.61	242.45
7	5515	26.71	242.45
7	5536	26.81	242.45
7	5557	26.91	242.45
7	5579	27.01	242.45
7	5600	27.11	242.45
7	5621	27.21	242.45
7	5642	27.31	242.45
7	5663	27.41	242.45
7	5684	27.51	242.45
7	5705	27.61	242.45
7	5726	27.71	242.45
7	5747	27.81	242.45
7	5768	27.91	242.45
7	5790	28.01	242.45
7	5811	28.11	242.45
7	5832	28.21	242.45
7	5853	28.31	242.45
7	5874	28.41	242.45
7	5895	28.51	242.45
7	5916	28.61	242.45
7	5937	28.71	242.45
7	5958	28.81	242.45
7	5979	28.91	242.45
7	6001	29.01	242.45
7	6022	29.11	242.45
7	6043	29.21	242.45
7	6064	29.31	242.45
7	6085	29.41	242.45
7	6106	29.51	242.45
7	6127	29.61	242.45
7	6148	29.71	242.45
7	6169	29.81	242.45
7	6190	29.91	242.45
7	6212	30.01	242.45
7	6233	30.11	242.45
7	6254	30.21	242.45
7	6275	30.31	242.45
7	6296	30.41	242.45
7	6317	30.51	242.45
7	6338	30.61	242.45
7	6359	30.71	242.45
7	6380	30.81	242.45
7	6401	30.91	242.45
7	6423	31.01	242.45
7	6444	31.11	242.45
7	6465	31.21	242.45
7	6486	31.31	242.45
7	6507	31.41	242.45
7	6528	31.51	242.45
7	6549	31.61	242.45
7	6570	31.71	242.45
7	6591	31.81	242.45
7	6612	31.91	242.45
7	6634	32.01	242.45
7	6655	32.11	242.45
7	6676	32.21	242.45
7	6697	32.31	242.45
7	6718	32.41	242.45
7	6739	32.51	242.45
7	6760	32.61	242.45
7	6781	32.71	242.45
7	6802	32.81	242.45
7	6823	32.91	242.45
7	6845	33.01	242.45
7	6866	33.11	242.45
7	6887	33.21	242.45
7	6908	33.31	242.45
7	6929	33.41	242.45
7	6950	33.51	242.45
7	6971	33.61	242.45
7	6992	33.71	242.45
7	7013	33.81	242.45
7	7034	33.91	242.45
7	7056	34.01	242.45
7	7077	34.11	242.45
7	7098	34.21	242.45
7	7119	34.31	242.45
7	7140	34.41	242.45
7	7161	34.51	242.45
7	7182	34.61	242.45
7	7203	34.71	242.45
7	7224	34.81	242.45
7	7245	34.91	242.45
7	7267	35.01	242.45
7	7288	35.11	242.45
7	7309	35.21	242.45
7	7330	35.31	242.45
7	7351	35.41	242.45
7	7372	35.51	242.45
7	7393	35.61	242.45
7	7414	35.71	242.45
7	7435	35.81	242.45
7	7456	35.91	242.45
7	7478	36.01	242.45
7	7499	36.11	242.45
7	7520	36.21	242.45
7	7541	36.31	242.45
7	7562	36.41	242.45
7	7583	36.51	242.45
7	7604	36.61	242.45
7	7625	36.71	242.45
7	7646	36.81	242.45
7	7667	36.91	242.45
7	7689	37.01	242.45
7	7710	37.11	242.45
7	7731	37.21	242.45
7	7752	37.31	242.45
7	7773	37.41	242.45
7	7794	37.51	242.45
7	7815	37.61	242.45
7	7836	37.71	242.45
7	7857	37.81	242.45
7	7878	37.91	242.45
7	7900	38.01	242.45
7	7921	38.11	242.45
7	7942	38.21	242.45
7	7963	38.31	242.45
7	7984	38.41	242.45
7	8005	38.51	242.45
7	8026	38.61	242.45
7	8047	38.71	242.45
7	8068	38.81	242.45
7	8089	38.91	242.45
7	8111	39.01	242.45
7	8132	39.11	242.45
7	8153	39.21	242.45
7	8174	39.31	242.45
7	8195	39.41	242.45
7	8216	39.51	242.45
7	8237	39.61	242.45
7	8258	39.71	242.45
7	8279	39.81	242.45
7	8300	39.91	242.45
7	8322	40.01	242.45
7	8343	40.11	242.45
7	8364	40.21	242.45
7	8385	40.31	242.45
7	8406	40.41	242.45
7	8427	40.51	242.45
7	8448	40.61	242.45
7	8469	40.71	242.45
7	8490	40.81	242.45
7	8511	40.91	242.45
7	8533	41.01	242.45
7	8554	41.11	242.45
7	8575	41.21	242.45
7	8596	41.31	242.45
7	8617	41.41	242.45
7	8638	41.51	242.45
7	8659	41.61	242.45
7	8680	41.71	242.45
7	8701	41.81	242.45
7	8722	41.91	242.45
7	8744	42.01	242.45
7	8765	42.11	242.45
7	8786	42.21	242.45
7	8807	42.31	242.45
7	8828	42.41	242.45
7	8849	42.51	242.45
7	8870	42.61	242.45
7	8891	42.71	242.45
7	8912	42.81	242.45
7	8933	42.91	242.45
7	8955	43.01	242.45
7	8976	43.11	242.45
7	8997	43.21	242.45
7	9018	43.31	242.45
7	9039	43.41	242.45
7	9060	43.51	242.45
7	9081	43.61	242.45
7	9102	43.71	242.45
7	9123	43.81	242.45
7	9144	43.91	242.45
7	9166	44.01	242.45
7	9187	44.11	242.45
7	9208	44.21	242.45
7	9229	44.31	242.45
7	9250	44.41	242.45
7	9271	44.51	242.45
7	9292	44.61	242.45
7	9313	44.71	242.45
7	9334	44.81	242.45
7	9355	44.91	242.45
7	9377	45.01	242.45
7	9398	45.11	242.45
7	9419	45.21	242.45
7	9440	45.31	242.45
7	9461	45.41	242.45
7	9482	45.51	242.45
7	9503	45.61	242.45
7	9524	45.71	242.45
7	9545	45.81	242.45
7	9566	45.91	242.45
7	9588	46.01	242.45
7	9609	46.11	242.45
7	9630	46.21	242.45
7	9651	46.31	242.45
7	9672	46.41	242.45
7	9693	46.51	242.45
7	9714	46.61	242.45
7	9735	46.71	242.45
7	9756	46.81	242.45
7	9777	46.91	242.45
7	9799	47.01	242.45
7	9820	47.11	242.45
7	9841	47.21	242.45
7	9862	47.31	242.45
7	9883	47.41	242.45
7	9904	47.51	242.45
7	9925	47.61	242.45
7	9946	47.71	242.45
7	9967	47.81	242.45
7	9988	47.91	242.45
7	10010	48.01	242.45
7	10031	48.11	242.45
7	10052	48.21	242.45
7	10073	48.31	242.45
7	10094	48.41	242.45
7	10115	48.51	242.45
7	10136	48.61	242.45
7	10157	48.71	242.45
7	10178	48.81	242.45
7	10199	48.91	242.45
7	10221	49.01	242.45
7	10242	49.11	242.45
7	10263	49.21	242.45
7	10284	49.31	242.45
7	10305	49.41	242.45
7	10326	49.51	242.45
7	10347	49.61	242.45
7	10368	49.71	242.45
7	10389	49.81	242.45
7	10410	49.91	242.45
7	10432	50.01	242.45
7	10453	50.11	242.45
7	10474	50.21	242.45
7	10495	50.31	242.45
7	10516	50.41	242.45
7	10537	50.51	242.45
7	10558	50.61	242.45
7	10579	50.71	242.45
7	10600	50.81	242.45
7	10621	50.91	242.45
7	10643	51.01	242.45
7	10664	51.11	242.45
7	10685	51.21	242.45
7	10706	51.31	242.45
7	10727	51.41	242.45
7	10748	51.51	242.45
7	10769	51.61	242.45
7	10790	51.71	242.45
7	10811	51.81	242.45
7	10832	51.91	242.45
7	10854	52.01	242.45
7	10875	52.11	242.45
7	10896	52.21	242.45
7	10917	52.31	242.45
7	10938	52.41	242.45
7	10959	52.51	242.45
7	10980	52.61	242.45
7	11001	52.71	242.45
7	11022	52.81	242.45
7	11043	52.91	242.45
7	11065	53.01	242.45
7	11086	53.11	242.45
7	11107	53.21	242.45
7	11128	53.31	242.45
7	11149	53.41	242.45
7	11170	53.51	242.45
7	11191	53.61	242.45
7	11212	53.71	242.45
7	11233	53.81	242.45
7	11254	53.91	242.45
7	11276	54.01	242.45
7	11297	54.11	242.45
7	11318	54.21	242.45
7	11339	54.31	242.45
7	11360	54.41	242.45
7	11381	54.51	242.45
7	11402	54.61	242.45
7	11423	54.71	242.45
7	11444	54.81	242.45
7	11465	54.91	242.45
7	11487	55.01	242.45
7	11508	55.11	242.45
7	11529	55.21	242.45
7	11550	55.31	242.45
7	11571	55.41	242.45
7	11592	55.51	242.45
7	11613	55.61	242.45
7	11634	55.71	242.45
7	11655	55.81	242.45
7	11676	55.91	242.45
7	11698	56.01	242.45
7	11719	56.11	242.45
7	11740	56.21	242.45
7	11761	56.31	242.45
7	11782	56.41	242.45
7	11803	56.51	242.45
7	11824	56.61	242.45
7	11845	56.71	242.45
7	11866	56.81	242.45
7	11887	56.91	242.45
7	11909	57.01	242.45
7	11930	57.11	242.45
7	11951	57.21	242.45
7	11972	57.31	242.45
7	11993	57.41	242.45
7	12014	57.51	242.45
7	12035	57.61	242.45
7	12056	57.71	242.45
7	12077	57.81	242.45
7	12098	57.91	242.45
7	12120	58.01	242.45
7	12141	58.11	242.45
7	12162	58.21	242.45
7	12183	58.31	242.45
7	12204	58.41	242.45
7	12225	58.51	242.45
7	12246	58.61	242.45
7	12267	58.71	242.45
7	12288	58.81	242.45
7	12309	58.91	242.45
7	12331	59.01	242.45
7	12352	59.11	242.45
7	12373	59.21	242.45
7	12394	59.31	242.45
7	12415	59.41	242.45
7	12436	59.51	242.45
7	12457	59.61	242.45
7	12478	59.71	242.45
7	12499	59.81	242.45
7	12520	59.91	242.45
7	12542	60.01	242.45
7	12563	60.11	242.45
7	12584	60.21	242.45
7	12605	60.31	242.45
7	12626	60.41	242.45
7	12647	60.51	242.45
7	12668	60.61	242.45
7	12689	60.71	242.45
7	12710	60.81	242.45
7	12731	60.91	242.45
7	12753	61.01	242.45
7	12774	61.11	242.45
7	12795	61.21	242.45
7	12816	61.31	242.45
7	12837	61.41	242.45
7	12858	61.51	242.45
7	12879	61.61	242.45
7	12900	61.71	242.45
7	12921	61.81	242.45
7	12942	61.91	242.45
7	12964	62.01	242.45
7	12985	62.11	242.45
7	13006	62.21	242.45
7	13027	62.31	242.45
7	13048	62.41	242.45
7	13069	62.51	242.45
7	13090	62.61	242.45
7	13111	62.71	242.45
7	13132	62.81	242.45
7	13153	62.91	242.45
7	13175	63.01	242.45
7	13196	63.11	242.45
7	13217	63.21	242.45
7	13238	63.31	242.45
7	13259	63.41	242.45
7	13280	63.51	242.45
7	13301	63.61	242.45
7	13322	63.71	242.45
7	13343	63.81	242.45
7	13364	63.91	242.45
7	13386	64.01	242.45
7	13407	64.11	242.45
7	13428	64.21	242.45
7	13449	64.31	242.45
7	13470	64.41	242.45
7	13491	64.51	242.45
7	13512	64.61	242.45
7	13533	64.71	242.45
7	13554	64.81	242.45
7	13575	64.91	242.45
7	13597	65.01	242.45
7	13618	65.11	242.45
7	13639	65.21	242.45
7	13660	65.31	242.45
7	13681	65.41	242.45
7	13702	65.51	242.45
7	13723	65.61	242.45
7	13744	65.71	242.45
7	13765	65.81	242.45
7	13786	65.91	242.45
7	13808	66.01	242.45
7	13829	66.11	242.45
7	13850	66.21	242.45
7	13871	66.31	242.45
7	13892	66.41	242.45
7	13913	66.51	242.45
7	13934	66.61	242.45
7	13955	66.71	242.45
7	13976	66.81	242.45
7	13997	66.91	242.45
7	14019	67.01	242.45
7	14040	67.11	242.45
7	14061	67.21	242.45
7	14082	67.31	242.45
7	14103	67.41	242.45
7	14124	67.51	242.45
7	14145	67.61	242.45
7	14166	67.71	242.45
7	14187	67.81	242.45
7	14208	67.91	242.45
7	14230	68.01	242.45
7	14251	68.11	242.45
7	14272	68.21	242.45
7	14293	68.31	242.45
7	14314	68.41	242.45
7	14335	68.51	242.45
7	14356	68.61	242.45
7	14377	68.71	242.45
7	14398	68.81	242.45
7	14419	68.91	242.45
7	14441	69.01	242.45
7	14462	69.11	242.45
7	14483	69.21	242.45
7	14504	69.31	242.45
7	14525	69.41	242.45
7	14546	69.51	242.45
7	14567	69.61	242.45
7	14588	69.71	242.45
7	14609	69.81	242.45
7	14630	69.91	242.45
7	14652	70.01	242.45
7	14673	70.11	242.45
7	14694	70.21	242.45
7	14715	70.31	242.45
7	14736	70.41	242.45
7	14757	70.51	242.45
7	14778	70.61	242.45
7	14799	70.71	242.45
7	14820	70.81	242.45
7	14841	70.91	242.45
7	14863	71.01	242.45
7	14884	71.11	242.45
7	14905	71.21	242.45
7	14926	71.31	242.45
7	14947	71.41	242.45
7	14968	71.51	242.45
7	14989	71.61	242.45
7	15010	71.71	242.45
7	15031	71.81	242.45
7	15052	71.91	242.45
7	15074	72.01	242.45
7	15095	72.11	242.45
7	15116	72.21	242.45
7	15137	72.31	242.45
7	15158	72.41	242.45
7	15179	72.51	242.45
7	15200	72.61	242.45
7	15221	72.71	242.45
7	15242	72.81	242.45
7	15263	72.91	242.45
7	15285	73.01	242.45
7	15306	73.11	242.45
7	15327	73.21	242.45
7	15348	73.31	242.45
7	15369	73.41	242.45
7	15390	73.51	242.45
7	15411	73.61	242.45
7	15432	73.71	242.45
7	15453	73.81	242.45
7	15474	73.91	242.45
7	15496	74.01	242.45
7	15517	74.11	242.45
7	15538	74.21	242.45
7	15559	74.31	242.45
7	15580	74.41	242.45
7	15601	74.51	242.45
7	15622	74.61	242.45
7	15643	74.71	242.45
7	15664	74.81	242.45
7	15685	74.91	242.45
7	15708	75.01	242.45
7	15729	75.11	242.45
7	15750	75.21	242.45
7	15771	75.31	242.45
7	15792	75.41	242.45
7	15813	75.51	242.45
7	15834	75.61	242.45
7	15855	75.71	242.45
7	15876	75.81	242.45
7	15897	75.91	242.45
7	15919	76.01	242.45
7	15940	76.11	242.45
7	15961	76.21	242.45
7	15982	76.31	242.45
7	16003	76.41	242.45
7	16024	76.51	242.45
7	16045	76.61	242.45
7	16066	76.71	242.45
7	16087	76.81	242.45
7	16108	76.91	242.45
7	16130	77.01	242.45
7	16151	77.11	242.45
7	16172	77.21	242.45
7	16193	77.31	242.45
7	16214	77.41	242.45
7	16235	77.51	242.45
7	16256	77.61	242.45
7	16277	77.71	242.45
7	16298	77.81	242.45
7	16319	77.91	242.45
7	16341	78.01	242.45
7	16362	78.11	242.45
7	16383	78.21	242.45
7	16404	78.31	242.45
7	16425	78.41	242.45
7	16446	78.51	242.45
7	16467	78.61	242.45
7	16488	78.71	242.45
7	16509	78.81	242.45
7	16530	78.91	242.45
7	16552	79.01	242.45
7	16573	79.11	242.45
7	16594	79.21	242.45
7	16615	79.31	242.45
7	16636	79.41	242.45
7	16657	79.51	242.45
7	16678	79.61	242.45
7	16699	79.71	242.45
7	16720	79.81	242.45
7	16741	79.91	242.45
7	16763	80.01	242.45
7	16784	80.11	242.45
7	16805	80.21	242.45
7	16826	80.31	242.45
7	16847	80.41	242.45
7	16868	80.51	242.45
7	16889	80.61	242.45
7	16910	80.71	242.45
7	16931	80.81	242.45
7	16952	80.91	242.45
7	16974	81.01	242.45
7	16995	81.11	242.45
7	17016	81.21	242.45
7	17037	81.31	242.45
7	17058	81.41	242.45
7	17079	81.51	242.45
7	17100	81.61	242.45
7	17121	81.71	242.45
7	17142	81.81	242.45
7	17163	81.91	242.45
7	17185	82.01	242.45
7	17206	82.11	242.45
7	17227	82.21	242.45
7	17248	82.31	242.45
7	17269	82.41	242.45
7	17290	82.51	242.45
7	17311	82.61	242.45
7	17332	82.71	242.45
7	17353	82.81	242.45
7	17374	82.91	242.45
7	17396	83.01	242.45
7	17417	83.11	242.45
7	17438	83.21	242.45
7	17459	83.31	242.45
7	17480	83.41	242.45
7	17501	83.51	242.45
7	17522	83.61	242.45
7	17543	83.71	242.45
7	17564	83.81	242.45
7	17585	83.91	242.45
7	17607	84.01	242.45
7	17628	84.11	242.45
7	17649	84.21	242.45
7	17670	84.31	242.45
7	17691	84.41	242.45
7	17712	84.51	242.45
7	17733	84.61	242.45
7	17754	84.71	242.45
7	17775	84.81	242.45
7	17796	84.91	242.45
7	17818	85.01	242.45
7	17839	85.11	242.45
7	17860	85.21	242.45
7	17881	85.31	242.45
7	17902	85.41	242.45
7	17923	85.51	242.45
7	17944	85.61	242.45
7	17965	85.71	242.45
7	17986	85.81	242.45
7	18007	85.91	242.45
7	18029	86.01	242.45
7	18050	86.11	242.45
7	18071	86.21	242.45
7	18092	86.31	242.45
7	18113	86.41	242.45
7	18134	86.51	242.45
7	18155	86.61	242.45
7	18176	86.71	242.45
7	18197	86.81	242.45
7	18218	86.91	242.45
7	18240	87.01	242.45
7	18261	87.11	242.45
7	18282	87.21	242.45
7	18303	87.31	242.45
7	18324	87.41	242.45
7	18345	87.51	242.45
7	18366	87.61	242.45
7	18387	87.71	242.45
7	18408	87.81	242.45
7	18429	87.91	242.45
7	18451	88.01	242.45
7	18472	88.11	242.45
7	18493	88.21	242.45
7	18514	88.31	242.45
7	18535	88.41	242.45
7	18556	88.51	242.45
7	18577	88.61	242.45
7	18598	88.71	242.45
7	18619	88.81	242.45
7	18640	88.91	242.45
7	18662	89.01	242.45
7	18683	89.11	242.45
7	18704	89.21	242.45
7	18725	89.31	242.45
7	18746	89.41	242.45
7	18767	89.51	242.45
7	18788	89.61	242.45
7	18809	89.71	242.45
7	18830	89.81	242.45
7	18851	89.91	242.45
7	18873	90.01	242.45
7	18894	90.11	242.45
7	18915	90.21	242.45
7	18936	90.31	242.45
7	18957	90.41	242.45
7	18978	90.51	242.45
7	18999	90.61	242.45
7	19020	90.71	242.45
7	19041	90.81	242.45
7	19062	90.91	242.45
7	19084	91.01	242.45
7	19105	91.11	242.45
7	19126	91.21	242.45
7	19147	91.31	242.45
7	19168	91.41	242.45
7	19189	91.51	242.45
7	19210	91.61	242.45
7	19231	91.71	242.45
7	19252	91.81	242.45
7	19273	91.91	242.45
7	19295	92.01	242.45
7	19316	92.11	242.45
7	19337	92.21	242.45
7	19358	92.31	242.45
7	19379	92.41	242.45
7	19400	92.51	242.45
7	19421	92.61	242.45
7	19442	92.71	242.45
7	19463	92.81	242.45
7	19484	92.91	242.45
7	19506	93.01	242.45
7	19527	93.11	242.45
7	19548	93.21	242.45
7	19569	93.31	242.45
7	19590	93.41	242.45
7	19611	93.51	242.45
7	19632	93.61	242.45
7	19653	93.71	242.45
7	19674	93.81	242.45
7	19695	93.91	242.45
7	19717	94.01	242.45
7	19738	94.11	242.45
7	19759	94.21	242.45
7	19780	94.31	242.45
7	19801	94.41	242.45
7	19822	94.51	242.45
7	19843	94.61	242.45
7	19864	94.71	242.45
7	19885	94.81	242.45
7	19906	94.91	242.45
7	19928	95.01	242.45
7	19949	95.11	242.45
7	19970	95.21	242.45
7	19991	95.31	242.45
7	20012	95.41	242.45
7	20033	95.51	242.45
7	20054	95.61	242.45
7	20075	95.71	242.45
7	20096	95.81	242.45
7	20117	95.91	242.45
7	20139	96.01	242.45
7	20160	96.11	242.45
7	20181	96.21	242.45
7	20202	96.31	242.45
7	20223	96.41	242.45
7	20244	96.51	242.45
7	20265	96.61	242.45
7	20286	96.71	242.45
7	20307	96.81	242.45
7	20328	96.91	242.45
7	20350	97.01	242.45
7	20371	97.11	242.45
7	20392	97.21	242.45
7	20413	97.31	242.45
7	20434	97.41	242.45
7	20455	97.51	242.45
7	20476	97.61	242.45
7	20497	97.71	242.45
7	20518	97.81	242.45
7	20539	97.91	242.45
7	20561	98.01	242.45
7	20582	98.11	242.45
7	20603	98.21	242.45
7	20624	98.31	242.45
7	20645	98.41	242.45
7	20666	98.51	242.45
7	20687	98.61	242.45
7	20708	98.71	242.45
7	20729	98.81	242.45
7	20750	98.91	242.45
7	20772	99.01	242.45
7	20793	99.11	242.45
7	20814	99.21	242.45
7	20835	99.31	242.45
7	20856	99.41	242.45
7	20877	99.51	242.45
7	20898	99.61	242.45
7	20919	99.71	242.45
7	20940	99.81	242.45
7	20961	99.91	242.45
8	301	2	0
8	512	3	0
8	723	4	0
8	935	5	0
8	1146	6	0
8	1357	7	0
8	1568	8	0
8	1779	9	0
8	1990	10	0
8	2201	11	0
8	2412	12	0
8	2623	13	0
8	2834	14	0
8	3045	15	0
8	3256	16	0
8	3467	17	0
8	3678	18	0
8	3889	19	0
8	4100	20	0
8	4311	21	0
8	4522	22	0
8	4733	23	0
8	4944	24	0
8	5155	25	0
8	5366	26	0
8	5577	27	0
8	5788	28	0
8	5999	29	0
8	6210	30	0
8	6421	31	0
8	6632	32	0
8	6843	33	0
8	7054	34	0
8	7265	35	0
8	7476	36	0
8	7687	37	0
8	7898	38	0
8	8109	39	0
8	8320	40	0
8	8531	41	0
8	8742	42	0
8	8953	43	0
8	9164	44	0
8	9375	45	0
8	9586	46	0
8	9797	47	0
8	10008	48	0
8	10219	49	0
8	10430	50	0
8	10641	51	0
8	10852	52	0
8	11063	53	0
8	11274	54	0
8	11485	55	0
8	11696	56	0
8	11907	57	0
8	12118	58	0
8	12329	59	0
8	12540	60	0
8	12751	61	0
8	12962	62	0
8	13173	63	0
8	13384	64	0
8	13595	65	0
8	13806	66	0
8	14017	67	0
8	14228	68	0
8	14439	69	0
8	14650	70	0
8	14861	71	0
8	15072	72	0
8	15283	73	0
8	15494	74	0
8	15706	75	0
8	15917	76	0
8	16128	77	0
8	16339	78	0
8	16550	79	0
8	16761	80	0
8	16972	81	0
8	17183	82	0
8	17394	83	0
8	17605	84	0
8	17816	85	0
8	18027	86	0
8	18238	87	0
8	18449	88	0
8	18660	89	0
8	18871	90	0
8	19082	91	0
8	19293	92	0
8	19504	93	0
8	19715	94	0
8	19926	95	0
8	20137	96	0
8	20348	97	0
8	20559	98	0
8	20770	99	0
8	20981	100	0
9	301	2	0.002817
9	512	3	0.00313
9	723	4	0.00313
9	935	5	0.00313
9	1146	6	0.00313
9	1357	7	0.00313
9	1568	8	0.00313
9	1779	9	0.00313
9	1990	10	0.00313
9	2201	11	0.00313
9	2412	12	0.00313
9	2623	13	0.00313
9	2834	14	0.00313
9	3045	15	0.00313
9	3256	16	0.00313
9	3467	17	0.00313
9	3678	18	0.00313
9	3889	19	0.00313
9	4100	20	0.00313
9	4311	21	0.00313
9	4522	22	0.00313
9	4733	23	0.00313
9	4944	24	0.00313
9	5155	25	0.00313
9	5366	26	0.00313
9	5577	27	0.00313
9	5788	28	0.00313
9	5999	29	0.00313
9	6210	30	0.00313
9	6421	31	0.00313
9	6632	32	0.00313
9	6843	33	0.00313
9	7054	34	0.00313
9	7265	35	0.00313
9	7476	36	0.00313
9	7687	37	0.00313
9	7898	38	0.00313
9	8109	39	0.00313
9	8320	40	0.00313
9	8531	41	0.00313
9	8742	42	0.00313
9	8953	43	0.00313
9	9164	44	0.00313
9	9375	45	0.00313
9	9586	46	0.00313
9	9797	47	0.00313
9	10008	48	0.00313
9	10219	49	0.00313
9	10430	50	0.00313
9	10641	51	0.00313
9	10852	52	0.00313
9	11063	53	0.00313
9	11274	54	0.00313
9	11485	55	0.00313
9	11696	56	0.00313
9	11907	57	0.00313
9	12118	58	0.00313
9	12329	59	0.00313
9	12540	60	0.00313
9	12751	61	0.00313
9	12962	62	0.00313
9	13173	63	0.00313
9	13384	64	0.00313
9	13595	65	0.00313
9	13806	66	0.00313
9	14017	67	0.00313
9	14228	68	0.00313
9	14439	69	0.00313
9	14650	70	0.00313
9	14861	71	0.00313
9	15072	72	0.00313
9	15283	73	0.00313
9	15494	74	0.00313
9	15706	75	0.00313
9	15917	76	0.00313
9	16128	77	0.00313
9	16339	78	0.00313
9	16550	79	0.00313
9	16761	80	0.00313
9	16972	81	0.00313
9	17183	82	0.00313
9	17394	83	0.00313
9	17605	84	0.00313
9	17816	85	0.00313
9	18027	86	0.00313
9	18238	87	0.00313
9	18449	88	0.00313
9	18660	89	0.00313
9	18871	90	0.00313
9	19082	91	0.00313
9	19293	92	0.00313
9	19504	93	0.00313
9	19715	94	0.00313
9	19926	95	0.00313
9	20137	96	0.00313
9	20348	97	0.00313
9	20559	98	0.00313
9	20770	99	0.00313
9	20981	100	0.00313
10	301	2	0
10	512	3	0
10	723	4	0
10	935	5	0
10	1146	6	0
10	1357	7	0
10	1568	8	0
10	1779	9	0
10	1990	10	0
10	2201	11	0
10	2412	12	0
10	2623	13	0
10	2834	14	0
10	3045	15	0
10	3256	16	0
10	3467	17	0
10	3678	18	0
10	3889	19	0
10	4100	20	0
10	4311	21	0
10	4522	22	0
10	4733	23	0
10	4944	24	0
10	5155	25	0
10	5366	26	0
10	5577	27	0
10	5788	28	0
10	5999	29	0
10	6210	30	0
10	6421	31	0
10	6632	32	0
10	6843	33	0
10	7054	34	0
10	7265	35	0
10	7476	36	0
10	7687	37	0
10	7898	38	0
10	8109	39	0
10	8320	40	0
10	8531	41	0
10	8742	42	0
10	8953	43	0
10	9164	44	0
10	9375	45	0
10	9586	46	0
10	9797	47	0
10	10008	48	0
10	10219	49	0
10	10430	50	0
10	10641	51	0
10	10852	52	0
10	11063	53	0
10	11274	54	0
10	11485	55	0
10	11696	56	0
10	11907	57	0
10	12118	58	0
10	12329	59	0
10	12540	60	0
10	12751	61	0
10	12962	62	0
10	13173	63	0
10	13384	64	0
10	13595	65	0
10	13806	66	0
10	14017	67	0
10	14228	68	0
10	14439	69	0
10	14650	70	0
10	14861	71	0
10	15072	72	0
10	15283	73	0
10	15494	74	0
10	15706	75	0
10	15917	76	0
10	16128	77	0
10	16339	78	0
10	16550	79	0
10	16761	80	0
10	16972	81	0
10	17183	82	0
10	17394	83	0
10	17605	84	0
10	17816	85	0
10	18027	86	0
10	18238	87	0
10	18449	88	0
10	18660	89	0
10	18871	90	0
10	19082	91	0
10	19293	92	0
10	19504	93	0
10	19715	94	0
10	19926	95	0
10	20137	96	0
10	20348	97	0
10	20559	98	0
10	20770	99	0
10	20981	100	0

