version 3
run Braking-0-20240816-19:36:26-10239
attr configname Braking
attr datetime 20240816-19:36:26
attr datetimef 20240816-193626
attr experiment Braking
attr inifile omnetpp.ini
attr iterationvars "$nCars=8, $platoonSize=8, $nLanes=1, $humanCars=1, $humanLanes=1, $ploegH=0.5, $controller=0, $headway=0.3, $leaderHeadway=1.2, $leaderSpeed=100, $beaconInterval=0.1, $priority=4, $packetSize=200, $0=2, $1=0.3, $sController=\"ACC\""
attr iterationvarsd nCars=8/platoonSize=8/nLanes=1/humanCars=1/humanLanes=1/ploegH=0.5/controller=0/headway=0.3/leaderHeadway=1.2/leaderSpeed=100/beaconInterval=0.1/priority=4/packetSize=200/2/0.3/sController=ACC
attr iterationvarsf nCars=8,platoonSize=8,nLanes=1,humanCars=1,humanLanes=1,ploegH=0.5,controller=0,headway=0.3,leaderHeadway=1.2,leaderSpeed=100,beaconInterval=0.1,priority=4,packetSize=200,2,0.3,sController=ACC-
attr measurement "$nCars=8, $platoonSize=8, $nLanes=1, $humanCars=1, $humanLanes=1, $ploegH=0.5, $controller=0, $headway=0.3, $leaderHeadway=1.2, $leaderSpeed=100, $beaconInterval=0.1, $priority=4, $packetSize=200, $0=2, $1=0.3, $sController=\"ACC\""
attr network Human
attr processid 10239
attr repetition 0
attr replication #0
attr resultdir results
attr runnumber 0
attr seedset 0
itervar beaconInterval 0.1
itervar controller 0
itervar headway 0.3
itervar humanCars 1
itervar humanLanes 1
itervar leaderHeadway 1.2
itervar leaderSpeed 100
itervar nCars 8
itervar nLanes 1
itervar packetSize 200
itervar platoonSize 8
itervar ploegH 0.5
itervar priority 4
itervar sController "\"ACC\""
config image-path ../../../veins/images
config repeat 1
config *.manager.command "\"sumo-gui\""
config *.manager.ignoreGuiCommands false
config *.node[*].scenario_type "\"BrakingScenario\""
config *.node[*].scenario.leaderOscillationFrequency "0.2 Hz"
config *.node[*].scenario.brakingDeceleration "8 mpsps"
config *.node[*].scenario.startBraking "5 s"
config output-vector-file results/Braking_0_0.3_0.vec
config output-scalar-file results/Braking_0_0.3_0.sca
config cmdenv-express-mode true
config cmdenv-autoflush true
config cmdenv-status-frequency 10s
config num-rngs 6
config network Human
config debug-on-errors true
config print-undisposed true
config *.playgroundSizeX 65000m
config *.playgroundSizeY 25000m
config *.playgroundSizeZ 50m
config sim-time-limit "120 s"
config *.annotations.draw false
config *.obstacles.debug false
config *.world.useTorus false
config *.world.use2D false
config *.manager.updateInterval 0.01s
config *.manager.host "\"localhost\""
config *.manager.moduleType "\"vtypeauto=org.car2x.plexe.PlatoonCar vtypehuman=HumanCar\""
config *.manager.moduleName "\"vtypeauto=node vtypehuman=human\""
config *.manager.moduleDisplayString "\"\""
config *.manager.autoShutdown true
config *.manager.margin 25
config *.connectionManager.sendDirect true
config *.connectionManager.maxInterfDist 2600m
config *.connectionManager.drawMaxIntfDist false
config *.**.nic.mac1609_4.useServiceChannel false
config *.**.nic.mac1609_4.txPower 100mW
config *.**.nic.mac1609_4.bitrate 6Mbps
config *.**.nic.mac1609_4.useAcks true
config *.**.nic.mac1609_4.ackErrorRate 0.0
config *.**.nic.mac1609_4.frameErrorRate 0.0
config *.**.nic.phy80211p.minPowerLevel -94dBm
config *.**.nic.phy80211p.maxTXPower 100mW
config *.**.nic.phy80211p.useNoiseFloor true
config *.**.nic.phy80211p.noiseFloor -95dBm
config *.**.nic.phy80211p.decider "xmldoc(\"config.xml\")"
config *.**.nic.phy80211p.analogueModels "xmldoc(\"config.xml\")"
config *.**.nic.phy80211p.usePropagationDelay true
config *.node[*].mobility.x 0
config *.node[*].mobility.y 0
config *.node[*].mobility.z 1.895
config *.human[*].mobility.x 0
config *.human[*].mobility.y 0
config *.human[*].mobility.z 1.895
config seed-set 0
config **.seed 0
config *.node[*].prot.rng-0 2
config *.node[*].appl.rng-0 3
config *.node[*].scenario.rng-0 4
config **.traffic.rng-0 5
config *.manager.configFile "\"./sumocfg/freeway.sumo.cfg\""
config *.manager.launchConfig "xmldoc(\"./sumocfg/freeway.launchd.xml\")"
config **.numberOfCars 8
config **.numberOfCarsPerPlatoon 8
config **.numberOfLanes 1
config **.numberOfHumanCars 1
config **.numberOfHumanLanes 1
config *.node[*].helper_type "\"PositionHelper\""
config *.node[*].scenario.caccC1 0.5
config *.node[*].scenario.caccXi 1
config *.node[*].scenario.caccOmegaN "0.2 Hz"
config *.node[*].scenario.caccSpacing "5 m"
config *.node[*].scenario.engineTau "0.5 s"
config *.node[*].scenario.ploegH 0.5s
config *.node[*].scenario.ploegKp 0.2
config *.node[*].scenario.ploegKd 0.7
config *.node[*].scenario.useRealisticEngine false
config *.node[*].scenario.nLanes 1
config **.numericController 0
config **.headway 0.3s
config *.node[*].scenario.accHeadway 0.3s
config *.node[*].scenario.leaderHeadway 1.2s
config *.node[*].scenario.leaderSpeed 100kmph
config *.node[*].appl_type "\"SimplePlatooningApp\""
config *.node[*].appl.*.scalar-recording true
config *.node[*].appl.*.vector-recording true
config *.node[*].protocol_type "\"SimplePlatooningBeaconing\""
config *.node[*].prot.*.scalar-recording true
config *.node[*].prot.*.vector-recording true
config *.node[*].prot.beaconingInterval 0.1s
config *.node[*].prot.priority 4
config *.node[*].prot.packetSize 200
config *.node[*].prot.useControllerAcceleration true
config *.human[*].prot.beaconingInterval "0.1 s"
config *.human[*].prot.priority 4
config *.human[*].prot.packetSize 200
config *.human[*].prot.txPower "100 mW"
config *.human[*].prot.bitrate "3 Mbps"
config **.traffic_type "\"PlatoonsPlusHumanTraffic\""
config **.traffic.platoonInsertTime "1 s"
config **.traffic.platoonInsertSpeed 100kmph
config **.traffic.nCars 8
config **.traffic.humanCars 1
config **.traffic.platoonSize 8
config **.traffic.nLanes 1
config **.traffic.humanLanes 1
config **.traffic.platooningVType "\"vtypeauto\""
config **.traffic.humanVType "\"vtypehuman\""
config **.traffic.platoonInsertDistance 2m
config **.traffic.platoonInsertHeadway 0.3s
config **.traffic.platoonLeaderHeadway 1.2s
config **.traffic.controller "\"ACC\""
config **.scalar-recording false
config **.vector-recording false

vector 0 Human.node[0].appl distance ETV
vector 1 Human.node[0].appl relativeSpeed ETV
vector 2 Human.node[0].appl nodeId ETV
vector 3 Human.node[0].appl acceleration ETV
vector 4 Human.node[0].appl controllerAcceleration ETV
vector 5 Human.node[0].appl speed ETV
vector 6 Human.node[0].appl posx ETV
vector 7 Human.node[0].appl posy ETV
vector 8 Human.node[1].appl distance ETV
vector 9 Human.node[1].appl relativeSpeed ETV
vector 10 Human.node[1].appl nodeId ETV
vector 11 Human.node[1].appl acceleration ETV
vector 12 Human.node[1].appl controllerAcceleration ETV
vector 13 Human.node[1].appl speed ETV
vector 14 Human.node[1].appl posx ETV
vector 15 Human.node[1].appl posy ETV
vector 16 Human.node[2].appl distance ETV
vector 17 Human.node[2].appl relativeSpeed ETV
vector 18 Human.node[2].appl nodeId ETV
vector 19 Human.node[2].appl acceleration ETV
vector 20 Human.node[2].appl controllerAcceleration ETV
vector 21 Human.node[2].appl speed ETV
vector 22 Human.node[2].appl posx ETV
vector 23 Human.node[2].appl posy ETV
vector 24 Human.node[3].appl distance ETV
vector 25 Human.node[3].appl relativeSpeed ETV
vector 26 Human.node[3].appl nodeId ETV
vector 27 Human.node[3].appl acceleration ETV
vector 28 Human.node[3].appl controllerAcceleration ETV
vector 29 Human.node[3].appl speed ETV
vector 30 Human.node[3].appl posx ETV
vector 31 Human.node[3].appl posy ETV
vector 32 Human.node[4].appl distance ETV
vector 33 Human.node[4].appl relativeSpeed ETV
vector 34 Human.node[4].appl nodeId ETV
vector 35 Human.node[4].appl acceleration ETV
vector 36 Human.node[4].appl controllerAcceleration ETV
vector 37 Human.node[4].appl speed ETV
vector 38 Human.node[4].appl posx ETV
vector 39 Human.node[4].appl posy ETV
vector 40 Human.node[5].appl distance ETV
vector 41 Human.node[5].appl relativeSpeed ETV
vector 42 Human.node[5].appl nodeId ETV
vector 43 Human.node[5].appl acceleration ETV
vector 44 Human.node[5].appl controllerAcceleration ETV
vector 45 Human.node[5].appl speed ETV
vector 46 Human.node[5].appl posx ETV
vector 47 Human.node[5].appl posy ETV
vector 48 Human.node[6].appl distance ETV
vector 49 Human.node[6].appl relativeSpeed ETV
vector 50 Human.node[6].appl nodeId ETV
vector 51 Human.node[6].appl acceleration ETV
vector 52 Human.node[6].appl controllerAcceleration ETV
vector 53 Human.node[6].appl speed ETV
vector 54 Human.node[6].appl posx ETV
vector 55 Human.node[6].appl posy ETV
vector 56 Human.node[7].appl distance ETV
vector 57 Human.node[7].appl relativeSpeed ETV
vector 58 Human.node[7].appl nodeId ETV
vector 59 Human.node[7].appl acceleration ETV
vector 60 Human.node[7].appl controllerAcceleration ETV
vector 61 Human.node[7].appl speed ETV
vector 62 Human.node[7].appl posx ETV
vector 63 Human.node[7].appl posy ETV
vector 64 Human.node[3].prot frontDelay ETV
vector 65 Human.node[3].prot frontDelayId ETV
vector 66 Human.node[2].prot frontDelay ETV
vector 67 Human.node[2].prot frontDelayId ETV
vector 68 Human.node[7].prot frontDelay ETV
vector 69 Human.node[7].prot frontDelayId ETV
vector 70 Human.node[1].prot leaderDelay ETV
vector 71 Human.node[1].prot leaderDelayId ETV
vector 72 Human.node[1].prot frontDelay ETV
vector 73 Human.node[1].prot frontDelayId ETV
vector 74 Human.node[2].prot leaderDelay ETV
vector 75 Human.node[2].prot leaderDelayId ETV
vector 76 Human.node[3].prot leaderDelay ETV
vector 77 Human.node[3].prot leaderDelayId ETV
vector 78 Human.node[4].prot leaderDelay ETV
vector 79 Human.node[4].prot leaderDelayId ETV
vector 80 Human.node[5].prot leaderDelay ETV
vector 81 Human.node[5].prot leaderDelayId ETV
vector 82 Human.node[6].prot leaderDelay ETV
vector 83 Human.node[6].prot leaderDelayId ETV
vector 84 Human.node[7].prot leaderDelay ETV
vector 85 Human.node[7].prot leaderDelayId ETV
vector 86 Human.node[5].prot frontDelay ETV
vector 87 Human.node[5].prot frontDelayId ETV
vector 88 Human.node[4].prot frontDelay ETV
vector 89 Human.node[4].prot frontDelayId ETV
vector 90 Human.node[6].prot frontDelay ETV
vector 91 Human.node[6].prot frontDelayId ETV
vector 92 Human.node[0].prot nodeId ETV
vector 93 Human.node[0].prot busyTime ETV
vector 94 Human.node[0].prot collisions ETV
vector 95 Human.node[1].prot nodeId ETV
vector 96 Human.node[1].prot busyTime ETV
vector 97 Human.node[1].prot collisions ETV
vector 98 Human.node[2].prot nodeId ETV
vector 99 Human.node[2].prot busyTime ETV
vector 100 Human.node[2].prot collisions ETV
vector 101 Human.node[3].prot nodeId ETV
vector 102 Human.node[3].prot busyTime ETV
vector 103 Human.node[3].prot collisions ETV
vector 104 Human.node[4].prot nodeId ETV
vector 105 Human.node[4].prot busyTime ETV
vector 106 Human.node[4].prot collisions ETV
vector 107 Human.node[5].prot nodeId ETV
vector 108 Human.node[5].prot busyTime ETV
vector 109 Human.node[5].prot collisions ETV
vector 110 Human.node[6].prot nodeId ETV
vector 111 Human.node[6].prot busyTime ETV
vector 112 Human.node[6].prot collisions ETV
vector 113 Human.node[7].prot nodeId ETV
vector 114 Human.node[7].prot busyTime ETV
vector 115 Human.node[7].prot collisions ETV
0	179	1.11	-1
0	847	1.21	-1
0	1515	1.31	-1
0	2183	1.41	-1
0	2851	1.51	-1
0	3519	1.61	-1
0	4187	1.71	-1
0	4855	1.81	-1
0	5523	1.91	-1
0	6199	2.01	-1
0	6867	2.11	-1
0	7535	2.21	-1
0	8203	2.31	-1
0	8871	2.41	-1
0	9539	2.51	-1
0	10207	2.61	-1
0	10875	2.71	-1
0	11543	2.81	-1
0	12211	2.91	-1
0	12887	3.01	-1
0	13555	3.11	-1
0	14223	3.21	-1
0	14891	3.31	-1
0	15559	3.41	-1
0	16227	3.51	-1
0	16895	3.61	-1
0	17563	3.71	-1
0	18231	3.81	-1
0	18899	3.91	-1
0	19575	4.01	-1
0	20243	4.11	-1
0	20911	4.21	-1
0	21579	4.31	-1
0	22247	4.41	-1
0	22915	4.51	-1
0	23583	4.61	-1
0	24251	4.71	-1
0	24919	4.81	-1
0	25587	4.91	-1
0	26264	5.01	-1
0	26932	5.11	-1
0	27600	5.21	-1
0	28268	5.31	-1
0	28936	5.41	-1
0	29604	5.51	-1
0	30272	5.61	-1
0	30940	5.71	-1
0	31608	5.81	-1
0	32276	5.91	-1
0	32952	6.01	-1
0	33620	6.11	-1
0	34288	6.21	-1
0	34956	6.31	-1
0	35624	6.41	-1
0	36292	6.51	-1
0	36960	6.61	-1
0	37628	6.71	-1
0	38296	6.81	-1
0	38964	6.91	-1
0	39640	7.01	-1
0	40308	7.11	-1
0	40976	7.21	-1
0	41644	7.31	-1
0	42312	7.41	-1
0	42980	7.51	-1
0	43648	7.61	-1
0	44316	7.71	-1
0	44984	7.81	-1
0	45652	7.91	-1
0	46328	8.01	-1
0	46996	8.11	-1
0	47664	8.21	-1
0	48332	8.31	-1
0	49000	8.41	-1
0	49668	8.51	-1
0	50336	8.61	-1
0	51004	8.71	-1
0	51672	8.81	-1
0	52340	8.91	-1
0	53016	9.01	-1
0	53684	9.11	-1
0	54352	9.21	-1
0	55020	9.31	-1
0	55688	9.41	-1
0	56356	9.51	-1
1	179	1.11	0
1	847	1.21	0
1	1515	1.31	0
1	2183	1.41	0
1	2851	1.51	0
1	3519	1.61	0
1	4187	1.71	0
1	4855	1.81	0
1	5523	1.91	0
1	6199	2.01	0
1	6867	2.11	0
1	7535	2.21	0
1	8203	2.31	0
1	8871	2.41	0
1	9539	2.51	0
1	10207	2.61	0
1	10875	2.71	0
1	11543	2.81	0
1	12211	2.91	0
1	12887	3.01	0
1	13555	3.11	0
1	14223	3.21	0
1	14891	3.31	0
1	15559	3.41	0
1	16227	3.51	0
1	16895	3.61	0
1	17563	3.71	0
1	18231	3.81	0
1	18899	3.91	0
1	19575	4.01	0
1	20243	4.11	0
1	20911	4.21	0
1	21579	4.31	0
1	22247	4.41	0
1	22915	4.51	0
1	23583	4.61	0
1	24251	4.71	0
1	24919	4.81	0
1	25587	4.91	0
1	26264	5.01	0
1	26932	5.11	0
1	27600	5.21	0
1	28268	5.31	0
1	28936	5.41	0
1	29604	5.51	0
1	30272	5.61	0
1	30940	5.71	0
1	31608	5.81	0
1	32276	5.91	0
1	32952	6.01	0
1	33620	6.11	0
1	34288	6.21	0
1	34956	6.31	0
1	35624	6.41	0
1	36292	6.51	0
1	36960	6.61	0
1	37628	6.71	0
1	38296	6.81	0
1	38964	6.91	0
1	39640	7.01	0
1	40308	7.11	0
1	40976	7.21	0
1	41644	7.31	0
1	42312	7.41	0
1	42980	7.51	0
1	43648	7.61	0
1	44316	7.71	0
1	44984	7.81	0
1	45652	7.91	0
1	46328	8.01	0
1	46996	8.11	0
1	47664	8.21	0
1	48332	8.31	0
1	49000	8.41	0
1	49668	8.51	0
1	50336	8.61	0
1	51004	8.71	0
1	51672	8.81	0
1	52340	8.91	0
1	53016	9.01	0
1	53684	9.11	0
1	54352	9.21	0
1	55020	9.31	0
1	55688	9.41	0
1	56356	9.51	0
2	179	1.11	0
2	847	1.21	0
2	1515	1.31	0
2	2183	1.41	0
2	2851	1.51	0
2	3519	1.61	0
2	4187	1.71	0
2	4855	1.81	0
2	5523	1.91	0
2	6199	2.01	0
2	6867	2.11	0
2	7535	2.21	0
2	8203	2.31	0
2	8871	2.41	0
2	9539	2.51	0
2	10207	2.61	0
2	10875	2.71	0
2	11543	2.81	0
2	12211	2.91	0
2	12887	3.01	0
2	13555	3.11	0
2	14223	3.21	0
2	14891	3.31	0
2	15559	3.41	0
2	16227	3.51	0
2	16895	3.61	0
2	17563	3.71	0
2	18231	3.81	0
2	18899	3.91	0
2	19575	4.01	0
2	20243	4.11	0
2	20911	4.21	0
2	21579	4.31	0
2	22247	4.41	0
2	22915	4.51	0
2	23583	4.61	0
2	24251	4.71	0
2	24919	4.81	0
2	25587	4.91	0
2	26264	5.01	0
2	26932	5.11	0
2	27600	5.21	0
2	28268	5.31	0
2	28936	5.41	0
2	29604	5.51	0
2	30272	5.61	0
2	30940	5.71	0
2	31608	5.81	0
2	32276	5.91	0
2	32952	6.01	0
2	33620	6.11	0
2	34288	6.21	0
2	34956	6.31	0
2	35624	6.41	0
2	36292	6.51	0
2	36960	6.61	0
2	37628	6.71	0
2	38296	6.81	0
2	38964	6.91	0
2	39640	7.01	0
2	40308	7.11	0
2	40976	7.21	0
2	41644	7.31	0
2	42312	7.41	0
2	42980	7.51	0
2	43648	7.61	0
2	44316	7.71	0
2	44984	7.81	0
2	45652	7.91	0
2	46328	8.01	0
2	46996	8.11	0
2	47664	8.21	0
2	48332	8.31	0
2	49000	8.41	0
2	49668	8.51	0
2	50336	8.61	0
2	51004	8.71	0
2	51672	8.81	0
2	52340	8.91	0
2	53016	9.01	0
2	53684	9.11	0
2	54352	9.21	0
2	55020	9.31	0
2	55688	9.41	0
2	56356	9.51	0
3	179	1.11	-0.000358191
3	847	1.21	-0.000681704
3	1515	1.31	-0.00093487
3	2183	1.41	-0.00112579
3	2851	1.51	-0.00126221
3	3519	1.61	-0.00135149
3	4187	1.71	-0.00140049
3	4855	1.81	-0.00141557
3	5523	1.91	-0.00140255
3	6199	2.01	-0.00136671
3	6867	2.11	-0.0013128
3	7535	2.21	-0.00124502
3	8203	2.31	-0.0011671
3	8871	2.41	-0.00108223
3	9539	2.51	-0.000993208
3	10207	2.61	-0.000902362
3	10875	2.71	-0.000811651
3	11543	2.81	-0.000722679
3	12211	2.91	-0.000636729
3	12887	3.01	-0.0005548
3	13555	3.11	-0.000477639
3	14223	3.21	-0.000405773
3	14891	3.31	-0.00033954
3	15559	3.41	-0.000279116
3	16227	3.51	-0.000224541
3	16895	3.61	-0.000175743
3	17563	3.71	-0.00013256
3	18231	3.81	-9.47571e-05
3	18899	3.91	-6.2046e-05
3	19575	4.01	-3.40986e-05
3	20243	4.11	-1.05605e-05
3	20911	4.21	8.93844e-06
3	21579	4.31	2.4774e-05
3	22247	4.41	3.73203e-05
3	22915	4.51	4.69433e-05
3	23583	4.61	5.39956e-05
3	24251	4.71	5.88124e-05
3	24919	4.81	6.1709e-05
3	25587	4.91	6.29785e-05
3	26264	5.01	-0.156801
3	26932	5.11	-1.56585
3	27600	5.21	-2.72175
3	28268	5.31	-3.67
3	28936	5.41	-4.44789
3	29604	5.51	-5.08603
3	30272	5.61	-5.60953
3	30940	5.71	-6.03898
3	31608	5.81	-6.39128
3	32276	5.91	-6.68029
3	32952	6.01	-6.91738
3	33620	6.11	-7.11187
3	34288	6.21	-7.27143
3	34956	6.31	-7.40232
3	35624	6.41	-7.50969
3	36292	6.51	-7.59778
3	36960	6.61	-7.67004
3	37628	6.71	-7.72932
3	38296	6.81	-7.77794
3	38964	6.91	-7.81784
3	39640	7.01	-7.85056
3	40308	7.11	-7.87741
3	40976	7.21	-7.89943
3	41644	7.31	-7.9175
3	42312	7.41	-7.93232
3	42980	7.51	-7.94448
3	43648	7.61	-7.95445
3	44316	7.71	-7.96264
3	44984	7.81	-7.96935
3	45652	7.91	-7.97486
3	46328	8.01	-7.97937
3	46996	8.11	-7.98308
3	47664	8.21	-7.98612
3	48332	8.31	-7.98861
3	49000	8.41	-7.99066
3	49668	8.51	-7.99234
3	50336	8.61	-7.99371
3	51004	8.71	-7.99484
3	51672	8.81	-7.99577
3	52340	8.91	-7.99653
3	53016	9.01	0
3	53684	9.11	0
3	54352	9.21	0
3	55020	9.31	0
3	55688	9.41	0
3	56356	9.51	0
4	179	1.11	-0.00218518
4	847	1.21	-0.00213419
4	1515	1.31	-0.00205408
4	2183	1.41	-0.00195152
4	2851	1.51	-0.00183238
4	3519	1.61	-0.00170178
4	4187	1.71	-0.00156412
4	4855	1.81	-0.00142314
4	5523	1.91	-0.00128196
4	6199	2.01	-0.00114315
4	6867	2.11	-0.00100877
4	7535	2.21	-0.000880447
4	8203	2.31	-0.000759381
4	8871	2.41	-0.000646445
4	9539	2.51	-0.000542204
4	10207	2.61	-0.000446965
4	10875	2.71	-0.000360819
4	11543	2.81	-0.000283678
4	12211	2.91	-0.000215307
4	12887	3.01	-0.000155357
4	13555	3.11	-0.000103391
4	14223	3.21	-5.89069e-05
4	14891	3.31	-2.13575e-05
4	15559	3.41	9.82919e-06
4	16227	3.51	3.52368e-05
4	16895	3.61	5.54479e-05
4	17563	3.71	7.10335e-05
4	18231	3.81	8.25451e-05
4	18899	3.91	9.05081e-05
4	19575	4.01	9.54172e-05
4	20243	4.11	9.7733e-05
4	20911	4.21	9.78798e-05
4	21579	4.31	9.62447e-05
4	22247	4.41	9.31771e-05
4	22915	4.51	8.89894e-05
4	23583	4.61	8.39579e-05
4	24251	4.71	7.83245e-05
4	24919	4.81	7.22983e-05
4	25587	4.91	6.6058e-05
4	26264	5.01	-8
4	26932	5.11	-8
4	27600	5.21	-8
4	28268	5.31	-8
4	28936	5.41	-8
4	29604	5.51	-8
4	30272	5.61	-8
4	30940	5.71	-8
4	31608	5.81	-8
4	32276	5.91	-8
4	32952	6.01	-8
4	33620	6.11	-8
4	34288	6.21	-8
4	34956	6.31	-8
4	35624	6.41	-8
4	36292	6.51	-8
4	36960	6.61	-8
4	37628	6.71	-8
4	38296	6.81	-8
4	38964	6.91	-8
4	39640	7.01	-8
4	40308	7.11	-8
4	40976	7.21	-8
4	41644	7.31	-8
4	42312	7.41	-8
4	42980	7.51	-8
4	43648	7.61	-8
4	44316	7.71	-8
4	44984	7.81	-8
4	45652	7.91	-8
4	46328	8.01	-8
4	46996	8.11	-8
4	47664	8.21	-8
4	48332	8.31	-8
4	49000	8.41	-8
4	49668	8.51	-8
4	50336	8.61	-8
4	51004	8.71	-8
4	51672	8.81	-8
4	52340	8.91	-8
4	53016	9.01	0
4	53684	9.11	0
4	54352	9.21	0
4	55020	9.31	0
4	55688	9.41	0
4	56356	9.51	0
5	179	1.11	27.78
5	847	1.21	27.7799
5	1515	1.31	27.7798
5	2183	1.41	27.7797
5	2851	1.51	27.7796
5	3519	1.61	27.7795
5	4187	1.71	27.7794
5	4855	1.81	27.7792
5	5523	1.91	27.7791
5	6199	2.01	27.7789
5	6867	2.11	27.7788
5	7535	2.21	27.7787
5	8203	2.31	27.7785
5	8871	2.41	27.7784
5	9539	2.51	27.7783
5	10207	2.61	27.7782
5	10875	2.71	27.7782
5	11543	2.81	27.7781
5	12211	2.91	27.778
5	12887	3.01	27.7779
5	13555	3.11	27.7779
5	14223	3.21	27.7779
5	14891	3.31	27.7778
5	15559	3.41	27.7778
5	16227	3.51	27.7778
5	16895	3.61	27.7777
5	17563	3.71	27.7777
5	18231	3.81	27.7777
5	18899	3.91	27.7777
5	19575	4.01	27.7777
5	20243	4.11	27.7777
5	20911	4.21	27.7777
5	21579	4.31	27.7777
5	22247	4.41	27.7777
5	22915	4.51	27.7777
5	23583	4.61	27.7777
5	24251	4.71	27.7777
5	24919	4.81	27.7777
5	25587	4.91	27.7777
5	26264	5.01	27.7762
5	26932	5.11	27.6807
5	27600	5.21	27.4586
5	28268	5.31	27.1328
5	28936	5.41	26.7217
5	29604	5.51	26.2408
5	30272	5.61	25.7025
5	30940	5.71	25.1173
5	31608	5.81	24.4934
5	32276	5.91	23.8379
5	32952	6.01	23.1565
5	33620	6.11	22.4537
5	34288	6.21	21.7335
5	34956	6.31	20.9989
5	35624	6.41	20.2526
5	36292	6.51	19.4967
5	36960	6.61	18.7328
5	37628	6.71	17.9624
5	38296	6.81	17.1867
5	38964	6.91	16.4067
5	39640	7.01	15.6231
5	40308	7.11	14.8365
5	40976	7.21	14.0475
5	41644	7.31	13.2565
5	42312	7.41	12.4639
5	42980	7.51	11.67
5	43648	7.61	10.875
5	44316	7.71	10.0791
5	44984	7.81	9.28245
5	45652	7.91	8.4852
5	46328	8.01	7.68746
5	46996	8.11	6.88931
5	47664	8.21	6.09083
5	48332	8.31	5.29208
5	49000	8.41	4.4931
5	49668	8.51	3.69394
5	50336	8.61	2.89463
5	51004	8.71	2.09519
5	51672	8.81	1.29566
5	52340	8.91	0.496036
5	53016	9.01	0
5	53684	9.11	0
5	54352	9.21	0
5	55020	9.31	0
5	55688	9.41	0
5	56356	9.51	0
6	179	1.11	111.27
6	847	1.21	114.048
6	1515	1.31	116.826
6	2183	1.41	119.604
6	2851	1.51	122.382
6	3519	1.61	125.16
6	4187	1.71	127.938
6	4855	1.81	130.716
6	5523	1.91	133.494
6	6199	2.01	136.272
6	6867	2.11	139.05
6	7535	2.21	141.828
6	8203	2.31	144.605
6	8871	2.41	147.383
6	9539	2.51	150.161
6	10207	2.61	152.939
6	10875	2.71	155.717
6	11543	2.81	158.495
6	12211	2.91	161.272
6	12887	3.01	164.05
6	13555	3.11	166.828
6	14223	3.21	169.606
6	14891	3.31	172.384
6	15559	3.41	175.161
6	16227	3.51	177.939
6	16895	3.61	180.717
6	17563	3.71	183.495
6	18231	3.81	186.272
6	18899	3.91	189.05
6	19575	4.01	191.828
6	20243	4.11	194.606
6	20911	4.21	197.383
6	21579	4.31	200.161
6	22247	4.41	202.939
6	22915	4.51	205.717
6	23583	4.61	208.495
6	24251	4.71	211.272
6	24919	4.81	214.05
6	25587	4.91	216.828
6	26264	5.01	219.606
6	26932	5.11	222.38
6	27600	5.21	225.138
6	28268	5.31	227.868
6	28936	5.41	230.561
6	29604	5.51	233.21
6	30272	5.61	235.807
6	30940	5.71	238.349
6	31608	5.81	240.83
6	32276	5.91	243.246
6	32952	6.01	245.596
6	33620	6.11	247.877
6	34288	6.21	250.087
6	34956	6.31	252.223
6	35624	6.41	254.286
6	36292	6.51	256.273
6	36960	6.61	258.185
6	37628	6.71	260.02
6	38296	6.81	261.777
6	38964	6.91	263.457
6	39640	7.01	265.058
6	40308	7.11	266.581
6	40976	7.21	268.026
6	41644	7.31	269.391
6	42312	7.41	270.677
6	42980	7.51	271.884
6	43648	7.61	273.011
6	44316	7.71	274.059
6	44984	7.81	275.027
6	45652	7.91	275.915
6	46328	8.01	276.724
6	46996	8.11	277.453
6	47664	8.21	278.102
6	48332	8.31	278.671
6	49000	8.41	279.16
6	49668	8.51	279.569
6	50336	8.61	279.899
6	51004	8.71	280.148
6	51672	8.81	280.318
6	52340	8.91	280.407
6	53016	9.01	280.423
6	53684	9.11	280.423
6	54352	9.21	280.423
6	55020	9.31	280.423
6	55688	9.41	280.423
6	56356	9.51	280.423
7	179	1.11	242.45
7	847	1.21	242.45
7	1515	1.31	242.45
7	2183	1.41	242.45
7	2851	1.51	242.45
7	3519	1.61	242.45
7	4187	1.71	242.45
7	4855	1.81	242.45
7	5523	1.91	242.45
7	6199	2.01	242.45
7	6867	2.11	242.45
7	7535	2.21	242.45
7	8203	2.31	242.45
7	8871	2.41	242.45
7	9539	2.51	242.45
7	10207	2.61	242.45
7	10875	2.71	242.45
7	11543	2.81	242.45
7	12211	2.91	242.45
7	12887	3.01	242.45
7	13555	3.11	242.45
7	14223	3.21	242.45
7	14891	3.31	242.45
7	15559	3.41	242.45
7	16227	3.51	242.45
7	16895	3.61	242.45
7	17563	3.71	242.45
7	18231	3.81	242.45
7	18899	3.91	242.45
7	19575	4.01	242.45
7	20243	4.11	242.45
7	20911	4.21	242.45
7	21579	4.31	242.45
7	22247	4.41	242.45
7	22915	4.51	242.45
7	23583	4.61	242.45
7	24251	4.71	242.45
7	24919	4.81	242.45
7	25587	4.91	242.45
7	26264	5.01	242.45
7	26932	5.11	242.45
7	27600	5.21	242.45
7	28268	5.31	242.45
7	28936	5.41	242.45
7	29604	5.51	242.45
7	30272	5.61	242.45
7	30940	5.71	242.45
7	31608	5.81	242.45
7	32276	5.91	242.45
7	32952	6.01	242.45
7	33620	6.11	242.45
7	34288	6.21	242.45
7	34956	6.31	242.45
7	35624	6.41	242.45
7	36292	6.51	242.45
7	36960	6.61	242.45
7	37628	6.71	242.45
7	38296	6.81	242.45
7	38964	6.91	242.45
7	39640	7.01	242.45
7	40308	7.11	242.45
7	40976	7.21	242.45
7	41644	7.31	242.45
7	42312	7.41	242.45
7	42980	7.51	242.45
7	43648	7.61	242.45
7	44316	7.71	242.45
7	44984	7.81	242.45
7	45652	7.91	242.45
7	46328	8.01	242.45
7	46996	8.11	242.45
7	47664	8.21	242.45
7	48332	8.31	242.45
7	49000	8.41	242.45
7	49668	8.51	242.45
7	50336	8.61	242.45
7	51004	8.71	242.45
7	51672	8.81	242.45
7	52340	8.91	242.45
7	53016	9.01	242.45
7	53684	9.11	242.45
7	54352	9.21	242.45
7	55020	9.31	242.45
7	55688	9.41	242.45
7	56356	9.51	242.45
8	180	1.11	10.33
8	848	1.21	10.33
8	1516	1.31	10.33
8	2184	1.41	10.33
8	2852	1.51	10.33
8	3520	1.61	10.33
8	4188	1.71	10.3299
8	4856	1.81	10.3299
8	5524	1.91	10.3299
8	6200	2.01	10.3299
8	6868	2.11	10.3299
8	7536	2.21	10.3299
8	8204	2.31	10.3299
8	8872	2.41	10.3298
8	9540	2.51	10.3298
8	10208	2.61	10.3298
8	10876	2.71	10.3299
8	11544	2.81	10.3299
8	12212	2.91	10.3299
8	12888	3.01	10.3299
8	13556	3.11	10.3299
8	14224	3.21	10.33
8	14892	3.31	10.33
8	15560	3.41	10.33
8	16228	3.51	10.3301
8	16896	3.61	10.3301
8	17564	3.71	10.3302
8	18232	3.81	10.3302
8	18900	3.91	10.3302
8	19576	4.01	10.3303
8	20244	4.11	10.3303
8	20912	4.21	10.3304
8	21580	4.31	10.3304
8	22248	4.41	10.3304
8	22916	4.51	10.3305
8	23584	4.61	10.3305
8	24252	4.71	10.3305
8	24920	4.81	10.3305
8	25588	4.91	10.3306
8	26265	5.01	10.3306
8	26933	5.11	10.3269
8	27601	5.21	10.3073
8	28269	5.31	10.2618
8	28937	5.41	10.1833
8	29605	5.51	10.0682
8	30273	5.61	9.91577
8	30941	5.71	9.72763
8	31609	5.81	9.50734
8	32277	5.91	9.25979
8	32953	6.01	8.99067
8	33621	6.11	8.70605
8	34289	6.21	8.41186
8	34957	6.31	8.11363
8	35625	6.41	7.81615
8	36293	6.51	7.5234
8	36961	6.61	7.23835
8	37629	6.71	6.96303
8	38297	6.81	6.69852
8	38965	6.91	6.44508
8	39641	7.01	6.20225
8	40309	7.11	5.96901
8	40977	7.21	5.74395
8	41645	7.31	5.52538
8	42313	7.41	5.31153
8	42981	7.51	5.10065
8	43649	7.61	4.89108
8	44317	7.71	4.68138
8	44985	7.81	4.47035
8	45653	7.91	4.25709
8	46329	8.01	4.04096
8	46997	8.11	3.82161
8	47665	8.21	3.59893
8	48333	8.31	3.37302
8	49001	8.41	3.14416
8	49669	8.51	2.91275
8	50337	8.61	2.67928
8	51005	8.71	2.44424
8	51673	8.81	2.20817
8	52341	8.91	1.97154
8	53017	9.01	1.7406
8	53685	9.11	1.57367
8	54353	9.21	1.48234
8	55021	9.31	1.45841
8	55689	9.41	1.45841
8	56357	9.51	1.45841
9	180	1.11	-7.20115e-06
9	848	1.21	-2.77941e-05
9	1516	1.31	-5.72289e-05
9	2184	1.41	-9.07596e-05
9	2852	1.51	-0.000123872
9	3520	1.61	-0.000152613
9	4188	1.71	-0.00017381
9	4856	1.81	-0.000185205
9	5524	1.91	-0.000185486
9	6200	2.01	-0.000174259
9	6868	2.11	-0.000151951
9	7536	2.21	-0.000119674
9	8204	2.31	-7.90706e-05
9	8872	2.41	-3.2137e-05
9	9540	2.51	1.89428e-05
9	10208	2.61	7.19532e-05
9	10876	2.71	0.000124783
9	11544	2.81	0.000175532
9	12212	2.91	0.000222598
9	12888	3.01	0.000264718
9	13556	3.11	0.000301002
9	14224	3.21	0.000330925
9	14892	3.31	0.00035431
9	15560	3.41	0.000371284
9	16228	3.51	0.000382233
9	16896	3.61	0.000387741
9	17564	3.71	0.000388537
9	18232	3.81	0.000385429
9	18900	3.91	0.000379259
9	19576	4.01	0.000370849
9	20244	4.11	0.000360969
9	20912	4.21	0.000350304
9	21580	4.31	0.000339438
9	22248	4.41	0.000328839
9	22916	4.51	0.000318858
9	23584	4.61	0.000309736
9	24252	4.71	0.000301608
9	24920	4.81	0.000294522
9	25588	4.91	0.00028845
9	26265	5.01	-0.00128533
9	26933	5.11	-0.0960909
9	27601	5.21	-0.311038
9	28269	5.31	-0.611631
9	28937	5.41	-0.964353
9	29605	5.51	-1.33847
9	30273	5.61	-1.70735
9	30941	5.71	-2.04937
9	31609	5.81	-2.34829
9	32277	5.91	-2.59334
9	32953	6.01	-2.77885
9	33621	6.11	-2.90375
9	34289	6.21	-2.97085
9	34957	6.31	-2.98593
9	35625	6.41	-2.95697
9	36293	6.51	-2.89321
9	36961	6.61	-2.80443
9	37629	6.71	-2.70023
9	38297	6.81	-2.58952
9	38965	6.91	-2.48006
9	39641	7.01	-2.37824
9	40309	7.11	-2.28887
9	40977	7.21	-2.21522
9	41645	7.31	-2.15906
9	42313	7.41	-2.12079
9	42981	7.51	-2.09969
9	43649	7.61	-2.09413
9	44317	7.71	-2.10184
9	44985	7.81	-2.12012
9	45653	7.91	-2.14613
9	46329	8.01	-2.17703
9	46997	8.11	-2.21019
9	47665	8.21	-2.24329
9	48333	8.31	-2.27441
9	49001	8.41	-2.30207
9	49669	8.51	-2.32527
9	50337	8.61	-2.34343
9	51005	8.71	-2.35639
9	51673	8.81	-2.36431
9	52341	8.91	-2.36763
9	53017	9.01	-2.0638
9	53685	9.11	-1.28127
9	54353	9.21	-0.558225
9	55021	9.31	0
9	55689	9.41	0
9	56357	9.51	0
10	180	1.11	1
10	848	1.21	1
10	1516	1.31	1
10	2184	1.41	1
10	2852	1.51	1
10	3520	1.61	1
10	4188	1.71	1
10	4856	1.81	1
10	5524	1.91	1
10	6200	2.01	1
10	6868	2.11	1
10	7536	2.21	1
10	8204	2.31	1
10	8872	2.41	1
10	9540	2.51	1
10	10208	2.61	1
10	10876	2.71	1
10	11544	2.81	1
10	12212	2.91	1
10	12888	3.01	1
10	13556	3.11	1
10	14224	3.21	1
10	14892	3.31	1
10	15560	3.41	1
10	16228	3.51	1
10	16896	3.61	1
10	17564	3.71	1
10	18232	3.81	1
10	18900	3.91	1
10	19576	4.01	1
10	20244	4.11	1
10	20912	4.21	1
10	21580	4.31	1
10	22248	4.41	1
10	22916	4.51	1
10	23584	4.61	1
10	24252	4.71	1
10	24920	4.81	1
10	25588	4.91	1
10	26265	5.01	1
10	26933	5.11	1
10	27601	5.21	1
10	28269	5.31	1
10	28937	5.41	1
10	29605	5.51	1
10	30273	5.61	1
10	30941	5.71	1
10	31609	5.81	1
10	32277	5.91	1
10	32953	6.01	1
10	33621	6.11	1
10	34289	6.21	1
10	34957	6.31	1
10	35625	6.41	1
10	36293	6.51	1
10	36961	6.61	1
10	37629	6.71	1
10	38297	6.81	1
10	38965	6.91	1
10	39641	7.01	1
10	40309	7.11	1
10	40977	7.21	1
10	41645	7.31	1
10	42313	7.41	1
10	42981	7.51	1
10	43649	7.61	1
10	44317	7.71	1
10	44985	7.81	1
10	45653	7.91	1
10	46329	8.01	1
10	46997	8.11	1
10	47665	8.21	1
10	48333	8.31	1
10	49001	8.41	1
10	49669	8.51	1
10	50337	8.61	1
10	51005	8.71	1
10	51673	8.81	1
10	52341	8.91	1
10	53017	9.01	1
10	53685	9.11	1
10	54353	9.21	1
10	55021	9.31	1
10	55689	9.41	1
10	56357	9.51	1
11	180	1.11	-0.000218844
11	848	1.21	-0.000428167
11	1516	1.31	-0.000614317
11	2184	1.41	-0.00078526
11	2852	1.51	-0.000944793
11	3520	1.61	-0.00109348
11	4188	1.71	-0.00122964
11	4856	1.81	-0.00135021
11	5524	1.91	-0.00145155
11	6200	2.01	-0.00153014
11	6868	2.11	-0.00158305
11	7536	2.21	-0.0016083
11	8204	2.31	-0.00160511
11	8872	2.41	-0.00157391
11	9540	2.51	-0.00151631
11	10208	2.61	-0.001435
11	10876	2.71	-0.00133351
11	11544	2.81	-0.00121599
11	12212	2.91	-0.00108692
11	12888	3.01	-0.000950919
11	13556	3.11	-0.000812441
11	14224	3.21	-0.000675624
11	14892	3.31	-0.000544108
11	15560	3.41	-0.00042093
11	16228	3.51	-0.000308451
11	16896	3.61	-0.000208339
11	17564	3.71	-0.000121575
11	18232	3.81	-4.85105e-05
11	18900	3.91	1.10643e-05
11	19576	4.01	5.78279e-05
11	20244	4.11	9.28256e-05
11	20912	4.21	0.000117366
11	21580	4.31	0.000132918
11	22248	4.41	0.00014102
11	22916	4.51	0.000143197
11	23584	4.61	0.000140891
11	24252	4.71	0.000135415
11	24920	4.81	0.000127911
11	25588	4.91	0.000119335
11	26265	5.01	0.000110443
11	26933	5.11	-0.0205302
11	27601	5.21	-0.130049
11	28269	5.31	-0.375837
11	28937	5.41	-0.776563
11	29605	5.51	-1.32821
11	30273	5.61	-2.01006
11	30941	5.71	-2.79024
11	31609	5.81	-3.63085
11	32277	5.91	-4.49225
11	32953	6.01	-5.33653
11	33621	6.11	-6.13022
11	34289	6.21	-6.84608
11	34957	6.31	-7.46409
11	35625	6.41	-7.97181
11	36293	6.51	-8.36417
11	36961	6.61	-8.64269
11	37629	6.71	-8.81452
11	38297	6.81	-8.89121
11	38965	6.91	-8.88739
11	39641	7.01	-8.81948
11	40309	7.11	-8.70451
11	40977	7.21	-8.55904
11	41645	7.31	-8.39835
11	42313	7.41	-8.23576
11	42981	7.51	-8.08225
11	43649	7.61	-7.94618
11	44317	7.71	-7.83334
11	44985	7.81	-7.74699
11	45653	7.91	-7.68818
11	46329	8.01	-7.65605
11	46997	8.11	-7.64822
11	47665	8.21	-7.66124
11	48333	8.31	-7.69092
11	49001	8.41	-7.7328
11	49669	8.51	-7.7824
11	50337	8.61	-7.83552
11	51005	8.71	-7.88847
11	51673	8.81	-7.93818
11	52341	8.91	-7.98228
11	53017	9.01	-7.9913
11	53685	9.11	-7.62209
11	54353	9.21	-6.85951
11	55021	9.31	0
11	55689	9.41	0
11	56357	9.51	0
12	180	1.11	-0.00135185
12	848	1.21	-0.00141402
12	1516	1.31	-0.00150607
12	2184	1.41	-0.0016126
12	2852	1.51	-0.00171864
12	3520	1.61	-0.00181082
12	4188	1.71	-0.00187822
12	4856	1.81	-0.00191283
12	5524	1.91	-0.00190982
12	6200	2.01	-0.00186738
12	6868	2.11	-0.00178656
12	7536	2.21	-0.00167076
12	8204	2.31	-0.00152528
12	8872	2.41	-0.00135671
12	9540	2.51	-0.00117239
12	10208	2.61	-0.000979858
12	10876	2.71	-0.000786386
12	11544	2.81	-0.000598607
12	12212	2.91	-0.00042221
12	12888	3.01	-0.000261749
12	13556	3.11	-0.000120549
12	14224	3.21	-6.83466e-07
12	14892	3.31	9.69598e-05
12	15560	3.41	0.000172563
12	16228	3.51	0.000227219
12	16896	3.61	0.000262743
12	17564	3.71	0.000281476
12	18232	3.81	0.000286087
12	18900	3.91	0.000279392
12	19576	4.01	0.00026419
12	20244	4.11	0.000243126
12	20912	4.21	0.00021859
12	21580	4.31	0.000192641
12	22248	4.41	0.000166962
12	22916	4.51	0.000142848
12	23584	4.61	0.000121208
12	24252	4.71	0.000102601
12	24920	4.81	8.72684e-05
12	25588	4.91	7.51935e-05
12	26265	5.01	6.61535e-05
12	26933	5.11	-0.270579
12	27601	5.21	-0.957391
12	28269	5.31	-1.94787
12	28937	5.41	-3.1306
12	29605	5.51	-4.40175
12	30273	5.61	-5.66996
12	30941	5.71	-6.85973
12	31609	5.81	-7.91321
12	32277	5.91	-8.79061
12	32953	6.01	-9.46953
12	33621	6.11	-9.94332
12	34289	6.21	-10.2187
12	34957	6.31	-10.3133
12	35625	6.41	-10.2523
12	36293	6.51	-10.0662
12	36961	6.61	-9.78741
12	37629	6.71	-9.44867
12	38297	6.81	-9.08054
12	38965	6.91	-8.71012
12	39641	7.01	-8.36002
12	40309	7.11	-8.04774
12	40977	7.21	-7.78552
12	41645	7.31	-7.58051
12	42313	7.41	-7.4352
12	42981	7.51	-7.34806
12	43649	7.61	-7.31435
12	44317	7.71	-7.32695
12	44985	7.81	-7.37715
12	45653	7.91	-7.45552
12	46329	8.01	-7.55254
12	46997	8.11	-7.65919
12	47665	8.21	-7.76744
12	48333	8.31	-7.87053
12	49001	8.41	-7.96317
12	49669	8.51	-8.04161
12	50337	8.61	-8.10358
12	51005	8.71	-8.1482
12	51673	8.81	-8.17577
12	52341	8.91	-8.18757
12	53017	9.01	-7.43954
12	53685	9.11	-4.79844
12	54353	9.21	-2.32266
12	55021	9.31	0
12	55689	9.41	0
12	56357	9.51	0
13	180	1.11	27.78
13	848	1.21	27.78
13	1516	1.31	27.7799
13	2184	1.41	27.7798
13	2852	1.51	27.7797
13	3520	1.61	27.7796
13	4188	1.71	27.7795
13	4856	1.81	27.7794
13	5524	1.91	27.7793
13	6200	2.01	27.7791
13	6868	2.11	27.7789
13	7536	2.21	27.7788
13	8204	2.31	27.7786
13	8872	2.41	27.7785
13	9540	2.51	27.7783
13	10208	2.61	27.7782
13	10876	2.71	27.778
13	11544	2.81	27.7779
13	12212	2.91	27.7778
13	12888	3.01	27.7777
13	13556	3.11	27.7776
13	14224	3.21	27.7775
13	14892	3.31	27.7775
13	15560	3.41	27.7774
13	16228	3.51	27.7774
13	16896	3.61	27.7774
13	17564	3.71	27.7773
13	18232	3.81	27.7773
13	18900	3.91	27.7773
13	19576	4.01	27.7773
13	20244	4.11	27.7773
13	20912	4.21	27.7774
13	21580	4.31	27.7774
13	22248	4.41	27.7774
13	22916	4.51	27.7774
13	23584	4.61	27.7774
13	24252	4.71	27.7774
13	24920	4.81	27.7774
13	25588	4.91	27.7774
13	26265	5.01	27.7775
13	26933	5.11	27.7768
13	27601	5.21	27.7697
13	28269	5.31	27.7444
13	28937	5.41	27.6861
13	29605	5.51	27.5793
13	30273	5.61	27.4099
13	30941	5.71	27.1666
13	31609	5.81	26.8417
13	32277	5.91	26.4313
13	32953	6.01	25.9353
13	33621	6.11	25.3575
13	34289	6.21	24.7043
13	34957	6.31	23.9849
13	35625	6.41	23.2096
13	36293	6.51	22.3899
13	36961	6.61	21.5372
13	37629	6.71	20.6627
13	38297	6.81	19.7763
13	38965	6.91	18.8868
13	39641	7.01	18.0013
13	40309	7.11	17.1253
13	40977	7.21	16.2627
13	41645	7.31	15.4156
13	42313	7.41	14.5847
13	42981	7.51	13.7697
13	43649	7.61	12.9691
13	44317	7.71	12.1809
13	44985	7.81	11.4026
13	45653	7.91	10.6313
13	46329	8.01	9.86449
13	46997	8.11	9.09951
13	47665	8.21	8.33412
13	48333	8.31	7.56649
13	49001	8.41	6.79517
13	49669	8.51	6.01921
13	50337	8.61	5.23806
13	51005	8.71	4.45158
13	51673	8.81	3.65996
13	52341	8.91	2.86367
13	53017	9.01	2.0638
13	53685	9.11	1.28127
13	54353	9.21	0.558225
13	55021	9.31	0
13	55689	9.41	0
13	56357	9.51	0
14	180	1.11	96.9402
14	848	1.21	99.7182
14	1516	1.31	102.496
14	2184	1.41	105.274
14	2852	1.51	108.052
14	3520	1.61	110.83
14	4188	1.71	113.608
14	4856	1.81	116.386
14	5524	1.91	119.164
14	6200	2.01	121.942
14	6868	2.11	124.72
14	7536	2.21	127.498
14	8204	2.31	130.276
14	8872	2.41	133.053
14	9540	2.51	135.831
14	10208	2.61	138.609
14	10876	2.71	141.387
14	11544	2.81	144.165
14	12212	2.91	146.942
14	12888	3.01	149.72
14	13556	3.11	152.498
14	14224	3.21	155.276
14	14892	3.31	158.053
14	15560	3.41	160.831
14	16228	3.51	163.609
14	16896	3.61	166.387
14	17564	3.71	169.164
14	18232	3.81	171.942
14	18900	3.91	174.72
14	19576	4.01	177.498
14	20244	4.11	180.275
14	20912	4.21	183.053
14	21580	4.31	185.831
14	22248	4.41	188.609
14	22916	4.51	191.386
14	23584	4.61	194.164
14	24252	4.71	196.942
14	24920	4.81	199.72
14	25588	4.91	202.497
14	26265	5.01	205.275
14	26933	5.11	208.053
14	27601	5.21	210.83
14	28269	5.31	213.606
14	28937	5.41	216.378
14	29605	5.51	219.142
14	30273	5.61	221.892
14	30941	5.71	224.621
14	31609	5.81	227.322
14	32277	5.91	229.987
14	32953	6.01	232.606
14	33621	6.11	235.171
14	34289	6.21	237.675
14	34957	6.31	240.11
14	35625	6.41	242.47
14	36293	6.51	244.75
14	36961	6.61	246.947
14	37629	6.71	249.057
14	38297	6.81	251.079
14	38965	6.91	253.012
14	39641	7.01	254.856
14	40309	7.11	256.612
14	40977	7.21	258.282
14	41645	7.31	259.866
14	42313	7.41	261.365
14	42981	7.51	262.783
14	43649	7.61	264.12
14	44317	7.71	265.377
14	44985	7.81	266.556
14	45653	7.91	267.658
14	46329	8.01	268.683
14	46997	8.11	269.631
14	47665	8.21	270.503
14	48333	8.31	271.298
14	49001	8.41	272.016
14	49669	8.51	272.657
14	50337	8.61	273.22
14	51005	8.71	273.704
14	51673	8.81	274.11
14	52341	8.91	274.436
14	53017	9.01	274.682
14	53685	9.11	274.849
14	54353	9.21	274.941
14	55021	9.31	274.964
14	55689	9.41	274.964
14	56357	9.51	274.964
15	180	1.11	242.45
15	848	1.21	242.45
15	1516	1.31	242.45
15	2184	1.41	242.45
15	2852	1.51	242.45
15	3520	1.61	242.45
15	4188	1.71	242.45
15	4856	1.81	242.45
15	5524	1.91	242.45
15	6200	2.01	242.45
15	6868	2.11	242.45
15	7536	2.21	242.45
15	8204	2.31	242.45
15	8872	2.41	242.45
15	9540	2.51	242.45
15	10208	2.61	242.45
15	10876	2.71	242.45
15	11544	2.81	242.45
15	12212	2.91	242.45
15	12888	3.01	242.45
15	13556	3.11	242.45
15	14224	3.21	242.45
15	14892	3.31	242.45
15	15560	3.41	242.45
15	16228	3.51	242.45
15	16896	3.61	242.45
15	17564	3.71	242.45
15	18232	3.81	242.45
15	18900	3.91	242.45
15	19576	4.01	242.45
15	20244	4.11	242.45
15	20912	4.21	242.45
15	21580	4.31	242.45
15	22248	4.41	242.45
15	22916	4.51	242.45
15	23584	4.61	242.45
15	24252	4.71	242.45
15	24920	4.81	242.45
15	25588	4.91	242.45
15	26265	5.01	242.45
15	26933	5.11	242.45
15	27601	5.21	242.45
15	28269	5.31	242.45
15	28937	5.41	242.45
15	29605	5.51	242.45
15	30273	5.61	242.45
15	30941	5.71	242.45
15	31609	5.81	242.45
15	32277	5.91	242.45
15	32953	6.01	242.45
15	33621	6.11	242.45
15	34289	6.21	242.45
15	34957	6.31	242.45
15	35625	6.41	242.45
15	36293	6.51	242.45
15	36961	6.61	242.45
15	37629	6.71	242.45
15	38297	6.81	242.45
15	38965	6.91	242.45
15	39641	7.01	242.45
15	40309	7.11	242.45
15	40977	7.21	242.45
15	41645	7.31	242.45
15	42313	7.41	242.45
15	42981	7.51	242.45
15	43649	7.61	242.45
15	44317	7.71	242.45
15	44985	7.81	242.45
15	45653	7.91	242.45
15	46329	8.01	242.45
15	46997	8.11	242.45
15	47665	8.21	242.45
15	48333	8.31	242.45
15	49001	8.41	242.45
15	49669	8.51	242.45
15	50337	8.61	242.45
15	51005	8.71	242.45
15	51673	8.81	242.45
15	52341	8.91	242.45
15	53017	9.01	242.45
15	53685	9.11	242.45
15	54353	9.21	242.45
15	55021	9.31	242.45
15	55689	9.41	242.45
15	56357	9.51	242.45
16	181	1.11	10.33
16	849	1.21	10.33
16	1517	1.31	10.33
16	2185	1.41	10.33
16	2853	1.51	10.33
16	3521	1.61	10.33
16	4189	1.71	10.33
16	4857	1.81	10.33
16	5525	1.91	10.33
16	6201	2.01	10.33
16	6869	2.11	10.33
16	7537	2.21	10.3299
16	8205	2.31	10.3299
16	8873	2.41	10.3299
16	9541	2.51	10.3299
16	10209	2.61	10.3299
16	10877	2.71	10.3298
16	11545	2.81	10.3298
16	12213	2.91	10.3298
16	12889	3.01	10.3298
16	13557	3.11	10.3298
16	14225	3.21	10.3298
16	14893	3.31	10.3299
16	15561	3.41	10.3299
16	16229	3.51	10.3299
16	16897	3.61	10.3299
16	17565	3.71	10.33
16	18233	3.81	10.33
16	18901	3.91	10.3301
16	19577	4.01	10.3301
16	20245	4.11	10.3302
16	20913	4.21	10.3302
16	21581	4.31	10.3303
16	22249	4.41	10.3303
16	22917	4.51	10.3304
16	23585	4.61	10.3304
16	24253	4.71	10.3304
16	24921	4.81	10.3305
16	25589	4.91	10.3305
16	26266	5.01	10.3305
16	26934	5.11	10.3306
16	27602	5.21	10.3303
16	28270	5.31	10.3285
16	28938	5.41	10.3228
16	29606	5.51	10.3095
16	30274	5.61	10.2837
16	30942	5.71	10.2399
16	31610	5.81	10.1727
16	32278	5.91	10.0768
16	32954	6.01	9.94818
16	33622	6.11	9.78397
16	34290	6.21	9.58313
16	34958	6.31	9.34638
16	35626	6.41	9.07625
16	36294	6.51	8.77687
16	36962	6.61	8.4537
16	37630	6.71	8.11313
16	38298	6.81	7.7621
16	38966	6.91	7.40759
16	39642	7.01	7.05396
16	40310	7.11	6.70222
16	40978	7.21	6.35353
16	41646	7.31	6.00934
16	42314	7.41	5.67125
16	42982	7.51	5.34088
16	43650	7.61	5.01973
16	44318	7.71	4.70917
16	44986	7.81	4.41031
16	45654	7.91	4.12398
16	46330	8.01	3.85078
16	46998	8.11	3.591
16	47666	8.21	3.3447
16	48334	8.31	3.11139
16	49002	8.41	2.88975
16	49670	8.51	2.6778
16	50338	8.61	2.47316
16	51006	8.71	2.2733
16	51674	8.81	2.07574
16	52342	8.91	1.87821
16	53018	9.01	1.67881
16	53686	9.11	1.47679
16	54354	9.21	1.2752
16	55022	9.31	1.08152
16	55690	9.41	0.937897
16	56358	9.51	0
17	181	1.11	-3.45898e-08
17	849	1.21	-5.72043e-07
17	1517	1.31	-2.71409e-06
17	2185	1.41	-7.80128e-06
17	2853	1.51	-1.70098e-05
17	3521	1.61	-3.10411e-05
17	4189	1.71	-4.99262e-05
17	4857	1.81	-7.29503e-05
17	5525	1.91	-9.86899e-05
17	6201	2.01	-0.000125141
17	6869	2.11	-0.000149916
17	7537	2.21	-0.000170478
17	8205	2.31	-0.000184384
17	8873	2.41	-0.000189516
17	9541	2.51	-0.000184267
17	10209	2.61	-0.000167682
17	10877	2.71	-0.000139536
17	11545	2.81	-0.000100346
17	12213	2.91	-5.13284e-05
17	12889	3.01	5.70134e-06
17	13557	3.11	6.84627e-05
17	14225	3.21	0.000134375
17	14893	3.31	0.000200731
17	15561	3.41	0.000264872
17	16229	3.51	0.000324345
17	16897	3.61	0.000377039
17	17565	3.71	0.000421287
17	18233	3.81	0.000455931
17	18901	3.91	0.000480358
17	19577	4.01	0.000494486
17	20245	4.11	0.000498734
17	20913	4.21	0.000493952
17	21581	4.31	0.000481339
17	22249	4.41	0.000462346
17	22917	4.51	0.000438573
17	23585	4.61	0.000411669
17	24253	4.71	0.00038324
17	24921	4.81	0.000354765
17	25589	4.91	0.000327537
17	26266	5.01	0.000302611
17	26934	5.11	-0.000400279
17	27602	5.21	-0.00745268
17	28270	5.31	-0.0321317
17	28938	5.41	-0.087824
17	29606	5.51	-0.186866
17	30274	5.61	-0.338156
17	30942	5.71	-0.545624
17	31610	5.81	-0.807561
17	32278	5.91	-1.11672
17	32954	6.01	-1.46107
17	33622	6.11	-1.82497
17	34290	6.21	-2.1907
17	34958	6.31	-2.54002
17	35626	6.41	-2.8557
17	36294	6.51	-3.12287
17	36962	6.61	-3.33003
17	37630	6.71	-3.46978
17	38298	6.81	-3.53909
17	38966	6.91	-3.54296
17	39642	7.01	-3.52843
17	40310	7.11	-3.50437
17	40978	7.21	-3.46701
17	41646	7.31	-3.41414
17	42314	7.41	-3.345
17	42982	7.51	-3.26002
17	43650	7.61	-3.16059
17	44318	7.71	-3.04879
17	44986	7.81	-2.92715
17	45654	7.91	-2.79839
17	46330	8.01	-2.66523
17	46998	8.11	-2.53021
17	47666	8.21	-2.39649
17	48334	8.31	-2.2719
17	49002	8.41	-2.16425
17	49670	8.51	-2.07878
17	50338	8.61	-2.01822
17	51006	8.71	-1.98308
17	51674	8.81	-1.97191
17	52342	8.91	-1.98178
17	53018	9.01	-2.0083
17	53686	9.11	-2.02691
17	54354	9.21	-1.9931
17	55022	9.31	-1.80266
17	55690	9.41	-1.07633
17	56358	9.51	-0.292487
18	181	1.11	2
18	849	1.21	2
18	1517	1.31	2
18	2185	1.41	2
18	2853	1.51	2
18	3521	1.61	2
18	4189	1.71	2
18	4857	1.81	2
18	5525	1.91	2
18	6201	2.01	2
18	6869	2.11	2
18	7537	2.21	2
18	8205	2.31	2
18	8873	2.41	2
18	9541	2.51	2
18	10209	2.61	2
18	10877	2.71	2
18	11545	2.81	2
18	12213	2.91	2
18	12889	3.01	2
18	13557	3.11	2
18	14225	3.21	2
18	14893	3.31	2
18	15561	3.41	2
18	16229	3.51	2
18	16897	3.61	2
18	17565	3.71	2
18	18233	3.81	2
18	18901	3.91	2
18	19577	4.01	2
18	20245	4.11	2
18	20913	4.21	2
18	21581	4.31	2
18	22249	4.41	2
18	22917	4.51	2
18	23585	4.61	2
18	24253	4.71	2
18	24921	4.81	2
18	25589	4.91	2
18	26266	5.01	2
18	26934	5.11	2
18	27602	5.21	2
18	28270	5.31	2
18	28938	5.41	2
18	29606	5.51	2
18	30274	5.61	2
18	30942	5.71	2
18	31610	5.81	2
18	32278	5.91	2
18	32954	6.01	2
18	33622	6.11	2
18	34290	6.21	2
18	34958	6.31	2
18	35626	6.41	2
18	36294	6.51	2
18	36962	6.61	2
18	37630	6.71	2
18	38298	6.81	2
18	38966	6.91	2
18	39642	7.01	2
18	40310	7.11	2
18	40978	7.21	2
18	41646	7.31	2
18	42314	7.41	2
18	42982	7.51	2
18	43650	7.61	2
18	44318	7.71	2
18	44986	7.81	2
18	45654	7.91	2
18	46330	8.01	2
18	46998	8.11	2
18	47666	8.21	2
18	48334	8.31	2
18	49002	8.41	2
18	49670	8.51	2
18	50338	8.61	2
18	51006	8.71	2
18	51674	8.81	2
18	52342	8.91	2
18	53018	9.01	2
18	53686	9.11	2
18	54354	9.21	2
18	55022	9.31	2
18	55690	9.41	2
18	56358	9.51	2
19	181	1.11	-0.000217605
19	849	1.21	-0.000417722
19	1517	1.31	-0.000581846
19	2185	1.41	-0.000717496
19	2853	1.51	-0.000831682
19	3521	1.61	-0.000930803
19	4189	1.71	-0.0010204
19	4857	1.81	-0.00110489
19	5525	1.91	-0.00118727
19	6201	2.01	-0.00126903
19	6869	2.11	-0.00135006
19	7537	2.21	-0.00142879
19	8205	2.31	-0.00150238
19	8873	2.41	-0.00156713
19	9541	2.51	-0.00161879
19	10209	2.61	-0.00165309
19	10877	2.71	-0.00166609
19	11545	2.81	-0.00165463
19	12213	2.91	-0.00161657
19	12889	3.01	-0.00155106
19	13557	3.11	-0.00145865
19	14225	3.21	-0.00134123
19	14893	3.31	-0.00120198
19	15561	3.41	-0.00104515
19	16229	3.51	-0.000875843
19	16897	3.61	-0.000699637
19	17565	3.71	-0.000522324
19	18233	3.81	-0.000349562
19	18901	3.91	-0.000186583
19	19577	4.01	-3.79406e-05
19	20245	4.11	9.2688e-05
19	20913	4.21	0.000202634
19	21581	4.31	0.000290303
19	22249	4.41	0.000355172
19	22917	4.51	0.000397731
19	23585	4.61	0.00041937
19	24253	4.71	0.000422225
19	24921	4.81	0.000409006
19	25589	4.91	0.000382797
19	26266	5.01	0.000346871
19	26934	5.11	0.000224757
19	27602	5.21	-0.0016208
19	28270	5.31	-0.0116794
19	28938	5.41	-0.0428791
19	29606	5.51	-0.113831
19	30274	5.61	-0.246512
19	30942	5.71	-0.463143
19	31610	5.81	-0.782927
19	32278	5.91	-1.21917
19	32954	6.01	-1.77712
19	33622	6.11	-2.4528
19	34290	6.21	-3.23286
19	34958	6.31	-4.09529
19	35626	6.41	-5.01113
19	36294	6.51	-5.94658
19	36962	6.61	-6.86559
19	37630	6.71	-7.73252
19	38298	6.81	-8.51457
19	38966	6.91	-9
19	39642	7.01	-9
19	40310	7.11	-9
19	40978	7.21	-9
19	41646	7.31	-9
19	42314	7.41	-9
19	42982	7.51	-9
19	43650	7.61	-9
19	44318	7.71	-9
19	44986	7.81	-9
19	45654	7.91	-9
19	46330	8.01	-9
19	46998	8.11	-9
19	47666	8.21	-8.97237
19	48334	8.31	-8.87146
19	49002	8.41	-8.71618
19	49670	8.51	-8.52767
19	50338	8.61	-8.32588
19	51006	8.71	-8.12836
19	51674	8.81	-7.94938
19	52342	8.91	-7.79946
19	53018	9.01	-7.68522
19	53686	9.11	-7.60559
19	54354	9.21	-7.53721
19	55022	9.31	-7.43593
19	55690	9.41	-7.06035
19	56358	9.51	-9
20	181	1.11	-0.00133251
20	849	1.21	-0.00133089
20	1517	1.31	-0.00133239
20	2185	1.41	-0.00134187
20	2853	1.51	-0.00136373
20	3521	1.61	-0.00140081
20	4189	1.71	-0.00145377
20	4857	1.81	-0.00152069
20	5525	1.91	-0.0015972
20	6201	2.01	-0.00167688
20	6869	2.11	-0.00175186
20	7537	2.21	-0.00181361
20	8205	2.31	-0.00185378
20	8873	2.41	-0.001865
20	9541	2.51	-0.00184151
20	10209	2.61	-0.00177967
20	10877	2.71	-0.0016783
20	11545	2.81	-0.00153873
20	12213	2.91	-0.00136469
20	12889	3.01	-0.00116201
20	13557	3.11	-0.000938214
20	14225	3.21	-0.00070192
20	14893	3.31	-0.000462307
20	15561	3.41	-0.0002285
20	16229	3.51	-9.02592e-06
20	16897	3.61	0.000188661
20	17565	3.71	0.000358549
20	18233	3.81	0.000496324
20	18901	3.91	0.000599494
20	19577	4.01	0.000667395
20	20245	4.11	0.000701082
20	20913	4.21	0.000703132
20	21581	4.31	0.000677368
20	22249	4.41	0.000628542
20	22917	4.51	0.000561988
20	23585	4.61	0.000483282
20	24253	4.71	0.000397919
20	24921	4.81	0.000311032
20	25589	4.91	0.000227161
20	26266	5.01	0.000150079
20	26934	5.11	-0.0015057
20	27602	5.21	-0.0214998
20	28270	5.31	-0.0963701
20	28938	5.41	-0.271177
20	29606	5.51	-0.58871
20	30274	5.61	-1.08113
20	30942	5.71	-1.76444
20	31610	5.81	-2.63577
20	32278	5.91	-3.67337
20	32954	6.01	-4.83879
20	33622	6.11	-6.08067
20	34290	6.21	-7.33968
20	34958	6.31	-8.55381
20	35626	6.41	-9.66363
20	36294	6.51	-10.6169
20	36962	6.61	-11.3722
20	37630	6.71	-11.9016
20	38298	6.81	-12.192
20	38966	6.91	-12.2513
20	39642	7.01	-12.233
20	40310	7.11	-12.184
20	40978	7.21	-12.0906
20	41646	7.31	-11.9447
20	42314	7.41	-11.7425
20	42982	7.51	-11.4848
20	43650	7.61	-11.1753
20	44318	7.71	-10.8203
20	44986	7.81	-10.4277
20	45654	7.91	-10.0063
20	46330	8.01	-9.56502
20	46998	8.11	-9.11228
20	47666	8.21	-8.65779
20	48334	8.31	-8.22702
20	49002	8.41	-7.8478
20	49670	8.51	-7.53955
20	50338	8.61	-7.31325
20	51006	8.71	-7.17213
20	51674	8.81	-7.11271
20	52342	8.91	-7.12619
20	53018	9.01	-7.19939
20	53686	9.11	-7.26189
20	54354	9.21	-7.16386
20	55022	9.31	-6.74446
20	55690	9.41	-4.28813
20	56358	9.51	-38.2487
21	181	1.11	27.78
21	849	1.21	27.78
21	1517	1.31	27.7799
21	2185	1.41	27.7798
21	2853	1.51	27.7798
21	3521	1.61	27.7797
21	4189	1.71	27.7796
21	4857	1.81	27.7795
21	5525	1.91	27.7794
21	6201	2.01	27.7792
21	6869	2.11	27.7791
21	7537	2.21	27.779
21	8205	2.31	27.7788
21	8873	2.41	27.7787
21	9541	2.51	27.7785
21	10209	2.61	27.7783
21	10877	2.71	27.7782
21	11545	2.81	27.778
21	12213	2.91	27.7778
21	12889	3.01	27.7777
21	13557	3.11	27.7775
21	14225	3.21	27.7774
21	14893	3.31	27.7773
21	15561	3.41	27.7772
21	16229	3.51	27.7771
21	16897	3.61	27.777
21	17565	3.71	27.7769
21	18233	3.81	27.7769
21	18901	3.91	27.7768
21	19577	4.01	27.7768
21	20245	4.11	27.7768
21	20913	4.21	27.7769
21	21581	4.31	27.7769
21	22249	4.41	27.7769
21	22917	4.51	27.777
21	23585	4.61	27.777
21	24253	4.71	27.777
21	24921	4.81	27.7771
21	25589	4.91	27.7771
21	26266	5.01	27.7772
21	26934	5.11	27.7772
21	27602	5.21	27.7771
21	28270	5.31	27.7765
21	28938	5.41	27.7739
21	29606	5.51	27.7661
21	30274	5.61	27.748
21	30942	5.71	27.7123
21	31610	5.81	27.6493
21	32278	5.91	27.548
21	32954	6.01	27.3964
21	33622	6.11	27.1824
21	34290	6.21	26.895
21	34958	6.31	26.5249
21	35626	6.41	26.0653
21	36294	6.51	25.5127
21	36962	6.61	24.8673
21	37630	6.71	24.1324
21	38298	6.81	23.3154
21	38966	6.91	22.4297
21	39642	7.01	21.5297
21	40310	7.11	20.6297
21	40978	7.21	19.7297
21	41646	7.31	18.8297
21	42314	7.41	17.9297
21	42982	7.51	17.0297
21	43650	7.61	16.1297
21	44318	7.71	15.2297
21	44986	7.81	14.3297
21	45654	7.91	13.4297
21	46330	8.01	12.5297
21	46998	8.11	11.6297
21	47666	8.21	10.7306
21	48334	8.31	9.83839
21	49002	8.41	8.95942
21	49670	8.51	8.09799
21	50338	8.61	7.25628
21	51006	8.71	6.43466
21	51674	8.81	5.63187
21	52342	8.91	4.84545
21	53018	9.01	4.0721
21	53686	9.11	3.30818
21	54354	9.21	2.55132
21	55022	9.31	1.80266
21	55690	9.41	1.07633
21	56358	9.51	0.292487
22	181	1.11	82.6102
22	849	1.21	85.3882
22	1517	1.31	88.1662
22	2185	1.41	90.9442
22	2853	1.51	93.7222
22	3521	1.61	96.5001
22	4189	1.71	99.2781
22	4857	1.81	102.056
22	5525	1.91	104.834
22	6201	2.01	107.612
22	6869	2.11	110.39
22	7537	2.21	113.168
22	8205	2.31	115.946
22	8873	2.41	118.723
22	9541	2.51	121.501
22	10209	2.61	124.279
22	10877	2.71	127.057
22	11545	2.81	129.835
22	12213	2.91	132.613
22	12889	3.01	135.39
22	13557	3.11	138.168
22	14225	3.21	140.946
22	14893	3.31	143.724
22	15561	3.41	146.501
22	16229	3.51	149.279
22	16897	3.61	152.057
22	17565	3.71	154.834
22	18233	3.81	157.612
22	18901	3.91	160.39
22	19577	4.01	163.168
22	20245	4.11	165.945
22	20913	4.21	168.723
22	21581	4.31	171.501
22	22249	4.41	174.278
22	22917	4.51	177.056
22	23585	4.61	179.834
22	24253	4.71	182.611
22	24921	4.81	185.389
22	25589	4.91	188.167
22	26266	5.01	190.944
22	26934	5.11	193.722
22	27602	5.21	196.5
22	28270	5.31	199.278
22	28938	5.41	202.055
22	29606	5.51	204.832
22	30274	5.61	207.608
22	30942	5.71	210.381
22	31610	5.81	213.15
22	32278	5.91	215.91
22	32954	6.01	218.657
22	33622	6.11	221.387
22	34290	6.21	224.092
22	34958	6.31	226.763
22	35626	6.41	229.393
22	36294	6.51	231.973
22	36962	6.61	234.493
22	37630	6.71	236.944
22	38298	6.81	239.317
22	38966	6.91	241.604
22	39642	7.01	243.802
22	40310	7.11	245.91
22	40978	7.21	247.928
22	41646	7.31	249.856
22	42314	7.41	251.694
22	42982	7.51	253.442
22	43650	7.61	255.1
22	44318	7.71	256.668
22	44986	7.81	258.146
22	45654	7.91	259.534
22	46330	8.01	260.832
22	46998	8.11	262.04
22	47666	8.21	263.158
22	48334	8.31	264.186
22	49002	8.41	265.126
22	49670	8.51	265.979
22	50338	8.61	266.746
22	51006	8.71	267.431
22	51674	8.81	268.034
22	52342	8.91	268.558
22	53018	9.01	269.003
22	53686	9.11	269.372
22	54354	9.21	269.665
22	55022	9.31	269.883
22	55690	9.41	270.027
22	56358	9.51	270.098
23	181	1.11	242.45
23	849	1.21	242.45
23	1517	1.31	242.45
23	2185	1.41	242.45
23	2853	1.51	242.45
23	3521	1.61	242.45
23	4189	1.71	242.45
23	4857	1.81	242.45
23	5525	1.91	242.45
23	6201	2.01	242.45
23	6869	2.11	242.45
23	7537	2.21	242.45
23	8205	2.31	242.45
23	8873	2.41	242.45
23	9541	2.51	242.45
23	10209	2.61	242.45
23	10877	2.71	242.45
23	11545	2.81	242.45
23	12213	2.91	242.45
23	12889	3.01	242.45
23	13557	3.11	242.45
23	14225	3.21	242.45
23	14893	3.31	242.45
23	15561	3.41	242.45
23	16229	3.51	242.45
23	16897	3.61	242.45
23	17565	3.71	242.45
23	18233	3.81	242.45
23	18901	3.91	242.45
23	19577	4.01	242.45
23	20245	4.11	242.45
23	20913	4.21	242.45
23	21581	4.31	242.45
23	22249	4.41	242.45
23	22917	4.51	242.45
23	23585	4.61	242.45
23	24253	4.71	242.45
23	24921	4.81	242.45
23	25589	4.91	242.45
23	26266	5.01	242.45
23	26934	5.11	242.45
23	27602	5.21	242.45
23	28270	5.31	242.45
23	28938	5.41	242.45
23	29606	5.51	242.45
23	30274	5.61	242.45
23	30942	5.71	242.45
23	31610	5.81	242.45
23	32278	5.91	242.45
23	32954	6.01	242.45
23	33622	6.11	242.45
23	34290	6.21	242.45
23	34958	6.31	242.45
23	35626	6.41	242.45
23	36294	6.51	242.45
23	36962	6.61	242.45
23	37630	6.71	242.45
23	38298	6.81	242.45
23	38966	6.91	242.45
23	39642	7.01	242.45
23	40310	7.11	242.45
23	40978	7.21	242.45
23	41646	7.31	242.45
23	42314	7.41	242.45
23	42982	7.51	242.45
23	43650	7.61	242.45
23	44318	7.71	242.45
23	44986	7.81	242.45
23	45654	7.91	242.45
23	46330	8.01	242.45
23	46998	8.11	242.45
23	47666	8.21	242.45
23	48334	8.31	242.45
23	49002	8.41	242.45
23	49670	8.51	242.45
23	50338	8.61	242.45
23	51006	8.71	242.45
23	51674	8.81	242.45
23	52342	8.91	242.45
23	53018	9.01	242.45
23	53686	9.11	242.45
23	54354	9.21	242.45
23	55022	9.31	242.45
23	55690	9.41	242.45
23	56358	9.51	242.45
24	182	1.11	10.34
24	850	1.21	10.34
24	1518	1.31	10.34
24	2186	1.41	10.3399
24	2854	1.51	10.3399
24	3522	1.61	10.3398
24	4190	1.71	10.3398
24	4858	1.81	10.3397
24	5526	1.91	10.3396
24	6202	2.01	10.3395
24	6870	2.11	10.3393
24	7538	2.21	10.3392
24	8206	2.31	10.3391
24	8874	2.41	10.339
24	9542	2.51	10.3388
24	10210	2.61	10.3387
24	10878	2.71	10.3386
24	11546	2.81	10.3385
24	12214	2.91	10.3383
24	12890	3.01	10.3382
24	13558	3.11	10.3381
24	14226	3.21	10.338
24	14894	3.31	10.3379
24	15562	3.41	10.3379
24	16230	3.51	10.3378
24	16898	3.61	10.3377
24	17566	3.71	10.3377
24	18234	3.81	10.3376
24	18902	3.91	10.3376
24	19578	4.01	10.3375
24	20246	4.11	10.3375
24	20914	4.21	10.3375
24	21582	4.31	10.3375
24	22250	4.41	10.3374
24	22918	4.51	10.3374
24	23586	4.61	10.3374
24	24254	4.71	10.3374
24	24922	4.81	10.3374
24	25590	4.91	10.3374
24	26267	5.01	10.3374
24	26935	5.11	10.3373
24	27603	5.21	10.3373
24	28271	5.31	10.3373
24	28939	5.41	10.3371
24	29607	5.51	10.3364
24	30275	5.61	10.3345
24	30943	5.71	10.3302
24	31611	5.81	10.3214
24	32279	5.91	10.3053
24	32955	6.01	10.2785
24	33623	6.11	10.2365
24	34291	6.21	10.1747
24	34959	6.31	10.0881
24	35627	6.41	9.97184
24	36295	6.51	9.82192
24	36963	6.61	9.63513
24	37631	6.71	9.40967
24	38299	6.81	9.1453
24	38967	6.91	8.8436
24	39643	7.01	8.51017
24	40311	7.11	8.15476
24	40979	7.21	7.78705
24	41647	7.31	7.41556
24	42315	7.41	7.04395
24	42983	7.51	6.67234
24	43651	7.61	6.30074
24	44319	7.71	5.92913
24	44987	7.81	5.55753
24	45655	7.91	5.18592
24	46331	8.01	4.81432
24	46999	8.11	4.44271
24	47667	8.21	4.07113
24	48335	8.31	3.69991
24	49003	8.41	3.3301
24	49671	8.51	2.96323
24	50339	8.61	2.6012
24	51007	8.71	2.24601
24	51675	8.81	1.89961
24	52343	8.91	1.56378
24	53019	9.01	1.23999
24	53687	9.11	0.92936
24	54355	9.21	0.632702
24	55023	9.31	0.350739
24	55691	9.41	0.0847836
24	56359	9.51	0
25	182	1.11	-2.77881e-05
25	850	1.21	-0.000108425
25	1518	1.31	-0.000227467
25	2186	1.41	-0.00037075
25	2854	1.51	-0.000525267
25	3522	1.61	-0.000679818
25	4190	1.71	-0.000825411
25	4858	1.81	-0.000955426
25	5526	1.91	-0.00106556
25	6202	2.01	-0.0011536
25	6870	2.11	-0.00121909
25	7538	2.21	-0.00126289
25	8206	2.31	-0.00128679
25	8874	2.41	-0.00129303
25	9542	2.51	-0.00128405
25	10210	2.61	-0.00126215
25	10878	2.71	-0.00122934
25	11546	2.81	-0.00118725
25	12214	2.91	-0.00113715
25	12890	3.01	-0.00107998
25	13558	3.11	-0.00101649
25	14226	3.21	-0.000947322
25	14894	3.31	-0.000873187
25	15562	3.41	-0.000794944
25	16230	3.51	-0.00071369
25	16898	3.61	-0.0006308
25	17566	3.71	-0.000547922
25	18234	3.81	-0.000466928
25	18902	3.91	-0.000389833
25	19578	4.01	-0.000318689
25	20246	4.11	-0.000255457
25	20914	4.21	-0.000201878
25	21582	4.31	-0.000159361
25	22250	4.41	-0.000128881
25	22918	4.51	-0.000110905
25	23586	4.61	-0.000105363
25	24254	4.71	-0.00011164
25	24922	4.81	-0.000128613
25	25590	4.91	-0.000154717
25	26267	5.01	-0.000188037
25	26935	5.11	-0.0002283
25	27603	5.21	-0.000344462
25	28271	5.31	-0.00100585
25	28939	5.41	-0.00364571
25	29607	5.51	-0.0111959
25	30275	5.61	-0.0283786
25	30943	5.71	-0.0616375
25	31611	5.81	-0.118683
25	32279	5.91	-0.207706
25	32955	6.01	-0.336371
25	33623	6.11	-0.510728
25	34291	6.21	-0.734193
25	34959	6.31	-1.00675
25	35627	6.41	-1.32443
25	36295	6.51	-1.67926
25	36963	6.61	-2.05947
25	37631	6.71	-2.45023
25	38299	6.81	-2.8346
25	38967	6.91	-3.19105
25	39643	7.01	-3.46094
25	40311	7.11	-3.63114
25	40979	7.21	-3.70861
25	41647	7.31	-3.71605
25	42315	7.41	-3.71605
25	42983	7.51	-3.71605
25	43651	7.61	-3.71605
25	44319	7.71	-3.71605
25	44987	7.81	-3.71605
25	45655	7.91	-3.71605
25	46331	8.01	-3.71605
25	46999	8.11	-3.71605
25	47667	8.21	-3.71516
25	48335	8.31	-3.70738
25	49003	8.41	-3.68635
25	49671	8.51	-3.64779
25	50339	8.61	-3.58949
25	51007	8.71	-3.51111
25	51675	8.81	-3.4139
25	52343	8.91	-3.30032
25	53019	9.01	-3.17367
25	53687	9.11	-3.03759
25	54355	9.21	-2.89445
25	55023	9.31	-2.74311
25	55691	9.41	-2.56944
25	56359	9.51	0
26	182	1.11	3
26	850	1.21	3
26	1518	1.31	3
26	2186	1.41	3
26	2854	1.51	3
26	3522	1.61	3
26	4190	1.71	3
26	4858	1.81	3
26	5526	1.91	3
26	6202	2.01	3
26	6870	2.11	3
26	7538	2.21	3
26	8206	2.31	3
26	8874	2.41	3
26	9542	2.51	3
26	10210	2.61	3
26	10878	2.71	3
26	11546	2.81	3
26	12214	2.91	3
26	12890	3.01	3
26	13558	3.11	3
26	14226	3.21	3
26	14894	3.31	3
26	15562	3.41	3
26	16230	3.51	3
26	16898	3.61	3
26	17566	3.71	3
26	18234	3.81	3
26	18902	3.91	3
26	19578	4.01	3
26	20246	4.11	3
26	20914	4.21	3
26	21582	4.31	3
26	22250	4.41	3
26	22918	4.51	3
26	23586	4.61	3
26	24254	4.71	3
26	24922	4.81	3
26	25590	4.91	3
26	26267	5.01	3
26	26935	5.11	3
26	27603	5.21	3
26	28271	5.31	3
26	28939	5.41	3
26	29607	5.51	3
26	30275	5.61	3
26	30943	5.71	3
26	31611	5.81	3
26	32279	5.91	3
26	32955	6.01	3
26	33623	6.11	3
26	34291	6.21	3
26	34959	6.31	3
26	35627	6.41	3
26	36295	6.51	3
26	36963	6.61	3
26	37631	6.71	3
26	38299	6.81	3
26	38967	6.91	3
26	39643	7.01	3
26	40311	7.11	3
26	40979	7.21	3
26	41647	7.31	3
26	42315	7.41	3
26	42983	7.51	3
26	43651	7.61	3
26	44319	7.71	3
26	44987	7.81	3
26	45655	7.91	3
26	46331	8.01	3
26	46999	8.11	3
26	47667	8.21	3
26	48335	8.31	3
26	49003	8.41	3
26	49671	8.51	3
26	50339	8.61	3
26	51007	8.71	3
26	51675	8.81	3
26	52343	8.91	3
26	53019	9.01	3
26	53687	9.11	3
26	54355	9.21	3
26	55023	9.31	3
26	55691	9.41	3
26	56359	9.51	3
27	182	1.11	0.000321619
27	850	1.21	0.000585408
27	1518	1.31	0.000740381
27	2186	1.41	0.000786108
27	2854	1.51	0.000730479
27	3522	1.61	0.000587387
27	4190	1.71	0.000374488
27	4858	1.81	0.000111164
27	5526	1.91	-0.000183194
27	6202	2.01	-0.000490525
27	6870	2.11	-0.000795047
27	7538	2.21	-0.0010838
27	8206	2.31	-0.00134683
27	8874	2.41	-0.00157714
27	9542	2.51	-0.00177035
27	10210	2.61	-0.00192426
27	10878	2.71	-0.00203837
27	11546	2.81	-0.00211337
27	12214	2.91	-0.00215072
27	12890	3.01	-0.00215231
27	13558	3.11	-0.00212019
27	14226	3.21	-0.0020565
27	14894	3.31	-0.0019634
27	15562	3.41	-0.00184316
27	16230	3.51	-0.00169823
27	16898	3.61	-0.0015314
27	17566	3.71	-0.00134587
27	18234	3.81	-0.00114535
27	18902	3.91	-0.000934104
27	19578	4.01	-0.000716885
27	20246	4.11	-0.000498846
27	20914	4.21	-0.000285384
27	21582	4.31	-8.19316e-05
27	22250	4.41	0.000106282
27	22918	4.51	0.000274478
27	23586	4.61	0.000418565
27	24254	4.71	0.000535352
27	24922	4.81	0.000622713
27	25590	4.91	0.000679691
27	26267	5.01	0.000706541
27	26935	5.11	0.000704562
27	27603	5.21	0.000663913
27	28271	5.31	0.000447399
27	28939	5.41	-0.000581167
27	29607	5.51	-0.00420889
27	30275	5.61	-0.0141759
27	30943	5.71	-0.0369176
27	31611	5.81	-0.0820295
27	32279	5.91	-0.162281
27	32955	6.01	-0.293084
27	33623	6.11	-0.491419
27	34291	6.21	-0.774298
27	34959	6.31	-1.15694
27	35627	6.41	-1.65084
27	36295	6.51	-2.262
27	36963	6.61	-2.98951
27	37631	6.71	-3.8246
27	38299	6.81	-4.75045
27	38967	6.91	-5.74241
27	39643	7.01	-6.75664
27	40311	7.11	-7.73069
27	40979	7.21	-8.61308
27	41647	7.31	-9
27	42315	7.41	-9
27	42983	7.51	-9
27	43651	7.61	-9
27	44319	7.71	-9
27	44987	7.81	-9
27	45655	7.91	-9
27	46331	8.01	-9
27	46999	8.11	-9
27	47667	8.21	-9
27	48335	8.31	-9
27	49003	8.41	-9
27	49671	8.51	-9
27	50339	8.61	-9
27	51007	8.71	-9
27	51675	8.81	-9
27	52343	8.91	-9
27	53019	9.01	-9
27	53687	9.11	-9
27	54355	9.21	-9
27	55023	9.31	-9
27	55691	9.41	-9
27	56359	9.51	-9
28	182	1.11	0.00192379
28	850	1.21	0.00166409
28	1518	1.31	0.00126616
28	2186	1.41	0.000777448
28	2854	1.51	0.000242249
28	3522	1.61	-0.000300693
28	4190	1.71	-0.000819714
28	4858	1.81	-0.00129095
28	5526	1.91	-0.0016983
28	6202	2.01	-0.00203284
28	6870	2.11	-0.00229168
28	7538	2.21	-0.0024767
28	8206	2.31	-0.00259307
28	8874	2.41	-0.0026479
28	9542	2.51	-0.00264903
28	10210	2.61	-0.00260412
28	10878	2.71	-0.00251998
28	11546	2.81	-0.00240225
28	12214	2.91	-0.00225536
28	12890	3.01	-0.00208266
28	13558	3.11	-0.00188679
28	14226	3.21	-0.00167006
28	14894	3.31	-0.00143491
28	15562	3.41	-0.00118428
28	16230	3.51	-0.000921867
28	16898	3.61	-0.000652319
28	17566	3.71	-0.00038121
28	18234	3.81	-0.000114913
28	18902	3.91	0.000139664
28	19578	4.01	0.000375434
28	20246	4.11	0.000585553
28	20914	4.21	0.000763847
28	21582	4.31	0.000905224
28	22250	4.41	0.00100602
28	22918	4.51	0.00106427
28	23586	4.61	0.00107981
28	24254	4.71	0.00105439
28	24922	4.81	0.000991471
28	25590	4.91	0.000896109
28	26267	5.01	0.000774607
28	26935	5.11	0.000630544
28	27603	5.21	0.00028792
28	28271	5.31	-0.00161224
28	28939	5.41	-0.0094677
28	29607	5.51	-0.0325763
28	30275	5.61	-0.0862519
28	30943	5.71	-0.19176
28	31611	5.81	-0.37495
28	32279	5.91	-0.663732
28	32955	6.01	-1.08474
28	33623	6.11	-1.65967
28	34291	6.21	-2.40175
28	34959	6.31	-3.31287
28	35627	6.41	-4.38175
28	36295	6.51	-5.58333
28	36963	6.61	-6.87951
28	37631	6.71	-8.22127
28	38299	6.81	-9.55177
28	38967	6.91	-10.8043
28	39643	7.01	-11.786
28	40311	7.11	-12.4316
28	40979	7.21	-12.7602
28	41647	7.31	-12.8328
28	42315	7.41	-12.8667
28	42983	7.51	-12.9006
28	43651	7.61	-12.9345
28	44319	7.71	-12.9683
28	44987	7.81	-13.0022
28	45655	7.91	-13.0361
28	46331	8.01	-13.0699
28	46999	8.11	-13.1038
28	47667	8.21	-13.1356
28	48335	8.31	-13.1468
28	49003	8.41	-13.1152
28	49671	8.51	-13.0254
28	50339	8.61	-12.8686
28	51007	8.71	-12.6426
28	51675	8.81	-12.3503
28	52343	8.91	-11.9991
28	53019	9.01	-11.599
28	53687	9.11	-11.1621
28	54355	9.21	-10.6966
28	55023	9.31	-10.2
28	55691	9.41	-9.63284
28	56359	9.51	-16.9947
29	182	1.11	27.78
29	850	1.21	27.7801
29	1518	1.31	27.7801
29	2186	1.41	27.7802
29	2854	1.51	27.7803
29	3522	1.61	27.7804
29	4190	1.71	27.7804
29	4858	1.81	27.7804
29	5526	1.91	27.7804
29	6202	2.01	27.7804
29	6870	2.11	27.7803
29	7538	2.21	27.7802
29	8206	2.31	27.7801
29	8874	2.41	27.78
29	9542	2.51	27.7798
29	10210	2.61	27.7796
29	10878	2.71	27.7794
29	11546	2.81	27.7792
29	12214	2.91	27.779
29	12890	3.01	27.7788
29	13558	3.11	27.7785
29	14226	3.21	27.7783
29	14894	3.31	27.7781
29	15562	3.41	27.7779
29	16230	3.51	27.7778
29	16898	3.61	27.7776
29	17566	3.71	27.7775
29	18234	3.81	27.7773
29	18902	3.91	27.7772
29	19578	4.01	27.7772
29	20246	4.11	27.7771
29	20914	4.21	27.7771
29	21582	4.31	27.777
29	22250	4.41	27.777
29	22918	4.51	27.7771
29	23586	4.61	27.7771
29	24254	4.71	27.7771
29	24922	4.81	27.7772
29	25590	4.91	27.7773
29	26267	5.01	27.7773
29	26935	5.11	27.7774
29	27603	5.21	27.7775
29	28271	5.31	27.7775
29	28939	5.41	27.7775
29	29607	5.51	27.7773
29	30275	5.61	27.7764
29	30943	5.71	27.7739
29	31611	5.81	27.768
29	32279	5.91	27.7557
29	32955	6.01	27.7327
29	33623	6.11	27.6932
29	34291	6.21	27.6292
29	34959	6.31	27.5316
29	35627	6.41	27.3897
29	36295	6.51	27.192
29	36963	6.61	26.9267
29	37631	6.71	26.5827
29	38299	6.81	26.1499
29	38967	6.91	25.6208
29	39643	7.01	24.9907
29	40311	7.11	24.2609
29	40979	7.21	23.4383
29	41647	7.31	22.5458
29	42315	7.41	21.6458
29	42983	7.51	20.7458
29	43651	7.61	19.8458
29	44319	7.71	18.9458
29	44987	7.81	18.0458
29	45655	7.91	17.1458
29	46331	8.01	16.2458
29	46999	8.11	15.3458
29	47667	8.21	14.4458
29	48335	8.31	13.5458
29	49003	8.41	12.6458
29	49671	8.51	11.7458
29	50339	8.61	10.8458
29	51007	8.71	9.94577
29	51675	8.81	9.04577
29	52343	8.91	8.14577
29	53019	9.01	7.24577
29	53687	9.11	6.34577
29	54355	9.21	5.44577
29	55023	9.31	4.54577
29	55691	9.41	3.64577
29	56359	9.51	0.0799472
30	182	1.11	68.2702
30	850	1.21	71.0482
30	1518	1.31	73.8262
30	2186	1.41	76.6042
30	2854	1.51	79.3823
30	3522	1.61	82.1603
30	4190	1.71	84.9383
30	4858	1.81	87.7164
30	5526	1.91	90.4944
30	6202	2.01	93.2724
30	6870	2.11	96.0505
30	7538	2.21	98.8285
30	8206	2.31	101.607
30	8874	2.41	104.385
30	9542	2.51	107.163
30	10210	2.61	109.94
30	10878	2.71	112.718
30	11546	2.81	115.496
30	12214	2.91	118.274
30	12890	3.01	121.052
30	13558	3.11	123.83
30	14226	3.21	126.608
30	14894	3.31	129.386
30	15562	3.41	132.163
30	16230	3.51	134.941
30	16898	3.61	137.719
30	17566	3.71	140.497
30	18234	3.81	143.275
30	18902	3.91	146.052
30	19578	4.01	148.83
30	20246	4.11	151.608
30	20914	4.21	154.385
30	21582	4.31	157.163
30	22250	4.41	159.941
30	22918	4.51	162.719
30	23586	4.61	165.496
30	24254	4.71	168.274
30	24922	4.81	171.052
30	25590	4.91	173.829
30	26267	5.01	176.607
30	26935	5.11	179.385
30	27603	5.21	182.163
30	28271	5.31	184.94
30	28939	5.41	187.718
30	29607	5.51	190.496
30	30275	5.61	193.274
30	30943	5.71	196.051
30	31611	5.81	198.828
30	32279	5.91	201.604
30	32955	6.01	204.379
30	33623	6.11	207.15
30	34291	6.21	209.917
30	34959	6.31	212.675
30	35627	6.41	215.422
30	36295	6.51	218.151
30	36963	6.61	220.858
30	37631	6.71	223.534
30	38299	6.81	226.171
30	38967	6.91	228.761
30	39643	7.01	231.292
30	40311	7.11	233.755
30	40979	7.21	236.141
30	41647	7.31	238.441
30	42315	7.41	240.65
30	42983	7.51	242.77
30	43651	7.61	244.799
30	44319	7.71	246.739
30	44987	7.81	248.589
30	45655	7.91	250.348
30	46331	8.01	252.018
30	46999	8.11	253.597
30	47667	8.21	255.087
30	48335	8.31	256.486
30	49003	8.41	257.796
30	49671	8.51	259.016
30	50339	8.61	260.145
30	51007	8.71	261.185
30	51675	8.81	262.134
30	52343	8.91	262.994
30	53019	9.01	263.763
30	53687	9.11	264.443
30	54355	9.21	265.033
30	55023	9.31	265.532
30	55691	9.41	265.942
30	56359	9.51	266.101
31	182	1.11	242.45
31	850	1.21	242.45
31	1518	1.31	242.45
31	2186	1.41	242.45
31	2854	1.51	242.45
31	3522	1.61	242.45
31	4190	1.71	242.45
31	4858	1.81	242.45
31	5526	1.91	242.45
31	6202	2.01	242.45
31	6870	2.11	242.45
31	7538	2.21	242.45
31	8206	2.31	242.45
31	8874	2.41	242.45
31	9542	2.51	242.45
31	10210	2.61	242.45
31	10878	2.71	242.45
31	11546	2.81	242.45
31	12214	2.91	242.45
31	12890	3.01	242.45
31	13558	3.11	242.45
31	14226	3.21	242.45
31	14894	3.31	242.45
31	15562	3.41	242.45
31	16230	3.51	242.45
31	16898	3.61	242.45
31	17566	3.71	242.45
31	18234	3.81	242.45
31	18902	3.91	242.45
31	19578	4.01	242.45
31	20246	4.11	242.45
31	20914	4.21	242.45
31	21582	4.31	242.45
31	22250	4.41	242.45
31	22918	4.51	242.45
31	23586	4.61	242.45
31	24254	4.71	242.45
31	24922	4.81	242.45
31	25590	4.91	242.45
31	26267	5.01	242.45
31	26935	5.11	242.45
31	27603	5.21	242.45
31	28271	5.31	242.45
31	28939	5.41	242.45
31	29607	5.51	242.45
31	30275	5.61	242.45
31	30943	5.71	242.45
31	31611	5.81	242.45
31	32279	5.91	242.45
31	32955	6.01	242.45
31	33623	6.11	242.45
31	34291	6.21	242.45
31	34959	6.31	242.45
31	35627	6.41	242.45
31	36295	6.51	242.45
31	36963	6.61	242.45
31	37631	6.71	242.45
31	38299	6.81	242.45
31	38967	6.91	242.45
31	39643	7.01	242.45
31	40311	7.11	242.45
31	40979	7.21	242.45
31	41647	7.31	242.45
31	42315	7.41	242.45
31	42983	7.51	242.45
31	43651	7.61	242.45
31	44319	7.71	242.45
31	44987	7.81	242.45
31	45655	7.91	242.45
31	46331	8.01	242.45
31	46999	8.11	242.45
31	47667	8.21	242.45
31	48335	8.31	242.45
31	49003	8.41	242.45
31	49671	8.51	242.45
31	50339	8.61	242.45
31	51007	8.71	242.45
31	51675	8.81	242.45
31	52343	8.91	242.45
31	53019	9.01	242.45
31	53687	9.11	242.45
31	54355	9.21	242.45
31	55023	9.31	242.45
31	55691	9.41	242.45
31	56359	9.51	242.45
32	183	1.11	10.33
32	851	1.21	10.33
32	1519	1.31	10.33
32	2187	1.41	10.3301
32	2855	1.51	10.3301
32	3523	1.61	10.3301
32	4191	1.71	10.3302
32	4859	1.81	10.3303
32	5527	1.91	10.3303
32	6203	2.01	10.3304
32	6871	2.11	10.3304
32	7539	2.21	10.3305
32	8207	2.31	10.3305
32	8875	2.41	10.3305
32	9543	2.51	10.3305
32	10211	2.61	10.3305
32	10879	2.71	10.3304
32	11547	2.81	10.3304
32	12215	2.91	10.3303
32	12891	3.01	10.3303
32	13559	3.11	10.3302
32	14227	3.21	10.3301
32	14895	3.31	10.3301
32	15563	3.41	10.33
32	16231	3.51	10.33
32	16899	3.61	10.3299
32	17567	3.71	10.3299
32	18235	3.81	10.3299
32	18903	3.91	10.3299
32	19579	4.01	10.3299
32	20247	4.11	10.3299
32	20915	4.21	10.3299
32	21583	4.31	10.33
32	22251	4.41	10.33
32	22919	4.51	10.3301
32	23587	4.61	10.3302
32	24255	4.71	10.3302
32	24923	4.81	10.3303
32	25591	4.91	10.3304
32	26268	5.01	10.3305
32	26936	5.11	10.3305
32	27604	5.21	10.3306
32	28272	5.31	10.3307
32	28940	5.41	10.3307
32	29608	5.51	10.3308
32	30276	5.61	10.3308
32	30944	5.71	10.3306
32	31612	5.81	10.33
32	32280	5.91	10.3286
32	32956	6.01	10.3256
32	33624	6.11	10.3198
32	34292	6.21	10.3095
32	34960	6.31	10.2924
32	35628	6.41	10.2654
32	36296	6.51	10.2248
32	36964	6.61	10.1664
32	37632	6.71	10.0855
32	38300	6.81	9.97726
32	38968	6.91	9.83705
32	39644	7.01	9.66067
32	40312	7.11	9.44497
32	40980	7.21	9.18838
32	41648	7.31	8.89153
32	42316	7.41	8.56074
32	42984	7.51	8.20615
32	43652	7.61	7.8377
32	44320	7.71	7.46435
32	44988	7.81	7.09073
32	45656	7.91	6.71712
32	46332	8.01	6.34351
32	47000	8.11	5.9699
32	47668	8.21	5.59628
32	48336	8.31	5.22267
32	49004	8.41	4.84906
32	49672	8.51	4.47544
32	50340	8.61	4.10183
32	51008	8.71	3.72822
32	51676	8.81	3.35461
32	52344	8.91	2.98099
32	53020	9.01	2.60738
32	53688	9.11	2.23377
32	54356	9.21	1.86016
32	55024	9.31	1.48654
32	55692	9.41	1.11293
32	56360	9.51	0.57936
33	183	1.11	2.76548e-05
33	851	1.21	0.000106207
33	1519	1.31	0.000216839
33	2187	1.41	0.000339754
33	2855	1.51	0.000456373
33	3523	1.61	0.000551019
33	4191	1.71	0.000612017
33	4859	1.81	0.00063225
33	5527	1.91	0.000609194
33	6203	2.01	0.000544542
33	6871	2.11	0.000443508
33	7539	2.21	0.000313943
33	8207	2.31	0.000165358
33	8875	2.41	7.96806e-06
33	9543	2.51	-0.000148178
33	10211	2.61	-0.000293913
33	10879	2.71	-0.000421488
33	11547	2.81	-0.000524911
33	12215	2.91	-0.000600107
33	12891	3.01	-0.000644903
33	13559	3.11	-0.000658895
33	14227	3.21	-0.000643211
33	14895	3.31	-0.000600219
33	15563	3.41	-0.000533219
33	16231	3.51	-0.000446135
33	16899	3.61	-0.000343241
33	17567	3.71	-0.000228924
33	18235	3.81	-0.000107504
33	18903	3.91	1.69029e-05
33	19579	4.01	0.000140478
33	20247	4.11	0.000259752
33	20915	4.21	0.00037164
33	21583	4.31	0.000473455
33	22251	4.41	0.000562917
33	22919	4.51	0.000638165
33	23587	4.61	0.000697765
33	24255	4.71	0.000740732
33	24923	4.81	0.000766545
33	25591	4.91	0.00077517
33	26268	5.01	0.000767069
33	26936	5.11	0.0007432
33	27604	5.21	0.000704609
33	28272	5.31	0.000646383
33	28940	5.41	0.000527384
33	29608	5.51	0.000189284
33	30276	5.61	-0.000792357
33	30944	5.71	-0.00332099
33	31612	5.81	-0.00902759
33	32280	5.91	-0.0205066
33	32956	6.01	-0.0414804
33	33624	6.11	-0.0768353
33	34292	6.21	-0.132484
33	34960	6.31	-0.215032
33	35628	6.41	-0.331259
33	36296	6.51	-0.487437
33	36964	6.61	-0.688564
33	37632	6.71	-0.937579
33	38300	6.81	-1.23465
33	38968	6.91	-1.57664
33	39644	7.01	-1.95628
33	40312	7.11	-2.3604
33	40980	7.21	-2.77072
33	41648	7.31	-3.15483
33	42316	7.41	-3.44406
33	42984	7.51	-3.63124
33	43652	7.61	-3.72274
33	44320	7.71	-3.73613
33	44988	7.81	-3.73613
33	45656	7.91	-3.73613
33	46332	8.01	-3.73613
33	47000	8.11	-3.73613
33	47668	8.21	-3.73613
33	48336	8.31	-3.73613
33	49004	8.41	-3.73613
33	49672	8.51	-3.73613
33	50340	8.61	-3.73613
33	51008	8.71	-3.73613
33	51676	8.81	-3.73613
33	52344	8.91	-3.73613
33	53020	9.01	-3.73613
33	53688	9.11	-3.73613
33	54356	9.21	-3.73613
33	55024	9.31	-3.73613
33	55692	9.41	-3.73613
33	56360	9.51	-6.40195
34	183	1.11	4
34	851	1.21	4
34	1519	1.31	4
34	2187	1.41	4
34	2855	1.51	4
34	3523	1.61	4
34	4191	1.71	4
34	4859	1.81	4
34	5527	1.91	4
34	6203	2.01	4
34	6871	2.11	4
34	7539	2.21	4
34	8207	2.31	4
34	8875	2.41	4
34	9543	2.51	4
34	10211	2.61	4
34	10879	2.71	4
34	11547	2.81	4
34	12215	2.91	4
34	12891	3.01	4
34	13559	3.11	4
34	14227	3.21	4
34	14895	3.31	4
34	15563	3.41	4
34	16231	3.51	4
34	16899	3.61	4
34	17567	3.71	4
34	18235	3.81	4
34	18903	3.91	4
34	19579	4.01	4
34	20247	4.11	4
34	20915	4.21	4
34	21583	4.31	4
34	22251	4.41	4
34	22919	4.51	4
34	23587	4.61	4
34	24255	4.71	4
34	24923	4.81	4
34	25591	4.91	4
34	26268	5.01	4
34	26936	5.11	4
34	27604	5.21	4
34	28272	5.31	4
34	28940	5.41	4
34	29608	5.51	4
34	30276	5.61	4
34	30944	5.71	4
34	31612	5.81	4
34	32280	5.91	4
34	32956	6.01	4
34	33624	6.11	4
34	34292	6.21	4
34	34960	6.31	4
34	35628	6.41	4
34	36296	6.51	4
34	36964	6.61	4
34	37632	6.71	4
34	38300	6.81	4
34	38968	6.91	4
34	39644	7.01	4
34	40312	7.11	4
34	40980	7.21	4
34	41648	7.31	4
34	42316	7.41	4
34	42984	7.51	4
34	43652	7.61	4
34	44320	7.71	4
34	44988	7.81	4
34	45656	7.91	4
34	46332	8.01	4
34	47000	8.11	4
34	47668	8.21	4
34	48336	8.31	4
34	49004	8.41	4
34	49672	8.51	4
34	50340	8.61	4
34	51008	8.71	4
34	51676	8.81	4
34	52344	8.91	4
34	53020	9.01	4
34	53688	9.11	4
34	54356	9.21	4
34	55024	9.31	4
34	55692	9.41	4
34	56360	9.51	4
35	183	1.11	-0.00021283
35	851	1.21	-0.000377094
35	1519	1.31	-0.000453563
35	2187	1.41	-0.000443556
35	2855	1.51	-0.00035984
35	3523	1.61	-0.00022344
35	4191	1.71	-6.0133e-05
35	4859	1.81	0.000102957
35	5527	1.91	0.000240369
35	6203	2.01	0.0003307
35	6871	2.11	0.000358264
35	7539	2.21	0.000313996
35	8207	2.31	0.000195628
35	8875	2.41	7.25579e-06
35	9543	2.51	-0.000241581
35	10211	2.61	-0.000537141
35	10879	2.71	-0.000862892
35	11547	2.81	-0.00120095
35	12215	2.91	-0.00153343
35	12891	3.01	-0.00184359
35	13559	3.11	-0.00211675
35	14227	3.21	-0.00234097
35	14895	3.31	-0.00250739
35	15563	3.41	-0.00261037
35	16231	3.51	-0.00264743
35	16899	3.61	-0.00261898
35	17567	3.71	-0.002528
35	18235	3.81	-0.00237957
35	18903	3.91	-0.00218047
35	19579	4.01	-0.00193871
35	20247	4.11	-0.00166313
35	20915	4.21	-0.00136305
35	21583	4.31	-0.00104793
35	22251	4.41	-0.000727115
35	22919	4.51	-0.000409604
35	23587	4.61	-0.000103853
35	24255	4.71	0.000182392
35	24923	4.81	0.000442256
35	25591	4.91	0.000669863
35	26268	5.01	0.000860469
35	26936	5.11	0.00101056
35	27604	5.21	0.0011179
35	28272	5.31	0.00118027
35	28940	5.41	0.0011853
35	29608	5.51	0.00107085
35	30276	5.61	0.000624845
35	30944	5.71	-0.000706046
35	31612	5.81	-0.00411503
35	32280	5.91	-0.0118313
35	32956	6.01	-0.0275733
35	33624	6.11	-0.0569895
35	34292	6.21	-0.107998
35	34960	6.31	-0.190933
35	35628	6.41	-0.318406
35	36296	6.51	-0.504839
35	36964	6.61	-0.765634
35	37632	6.71	-1.11601
35	38300	6.81	-1.56961
35	38968	6.91	-2.13691
35	39644	7.01	-2.82361
35	40312	7.11	-3.62847
35	40980	7.21	-4.54096
35	41648	7.31	-5.53946
35	42316	7.41	-6.5726
35	42984	7.51	-7.57335
35	43652	7.61	-8.48729
35	44320	7.71	-9
35	44988	7.81	-9
35	45656	7.91	-9
35	46332	8.01	-9
35	47000	8.11	-9
35	47668	8.21	-9
35	48336	8.31	-9
35	49004	8.41	-9
35	49672	8.51	-9
35	50340	8.61	-9
35	51008	8.71	-9
35	51676	8.81	-9
35	52344	8.91	-9
35	53020	9.01	-9
35	53688	9.11	-9
35	54356	9.21	-9
35	55024	9.31	-9
35	55692	9.41	-9
35	56360	9.51	-9
36	183	1.11	-0.00125786
36	851	1.21	-0.00100549
36	1519	1.31	-0.000635284
36	2187	1.41	-0.000213342
36	2855	1.51	0.000197066
36	3523	1.61	0.000541434
36	4191	1.71	0.000778091
36	4859	1.81	0.000880385
36	5527	1.91	0.000837126
36	6203	2.01	0.000651563
36	6871	2.11	0.000339254
36	7539	2.21	-7.48076e-05
36	8207	2.31	-0.000559416
36	8875	2.41	-0.00108039
36	9543	2.51	-0.00160356
36	10211	2.61	-0.00209727
36	10879	2.71	-0.00253431
36	11547	2.81	-0.00289317
36	12215	2.91	-0.00315872
36	12891	3.01	-0.00332226
36	13559	3.11	-0.00338113
36	14227	3.21	-0.00333805
36	14895	3.31	-0.00320012
36	15563	3.41	-0.00297781
36	16231	3.51	-0.00268393
36	16899	3.61	-0.0023327
36	17567	3.71	-0.00193891
36	18235	3.81	-0.00151728
36	18903	3.91	-0.00108198
36	19579	4.01	-0.00064628
36	20247	4.11	-0.000222322
36	20915	4.21	0.000178996
36	21583	4.31	0.000548097
36	22251	4.41	0.00087677
36	22919	4.51	0.00115821
36	23587	4.61	0.00138709
36	24255	4.71	0.00155956
36	24923	4.81	0.00167342
36	25591	4.91	0.00172809
36	26268	5.01	0.00172473
36	26936	5.11	0.00166621
36	27604	5.21	0.00155618
36	28272	5.31	0.00138268
36	28940	5.41	0.00102882
36	29608	5.51	2.14564e-05
36	30276	5.61	-0.00294668
36	30944	5.71	-0.0107175
36	31612	5.81	-0.0285052
36	32280	5.91	-0.0647145
36	32956	6.01	-0.131544
36	33624	6.11	-0.245179
36	34292	6.21	-0.42541
36	34960	6.31	-0.694597
36	35628	6.41	-1.07599
36	36296	6.51	-1.59147
36	36964	6.61	-2.25899
36	37632	6.71	-3.08988
36	38300	6.81	-4.08636
36	38968	6.91	-5.23963
36	39644	7.01	-6.52735
36	40312	7.11	-7.90757
36	40980	7.21	-9.32015
36	41648	7.31	-10.6687
36	42316	7.41	-11.7165
36	42984	7.51	-12.4211
36	43652	7.61	-12.7991
36	44320	7.71	-12.897
36	44988	7.81	-12.9316
36	45656	7.91	-12.9661
36	46332	8.01	-13.0007
36	47000	8.11	-13.0352
36	47668	8.21	-13.0697
36	48336	8.31	-13.1043
36	49004	8.41	-13.1388
36	49672	8.51	-13.1733
36	50340	8.61	-13.2079
36	51008	8.71	-13.2424
36	51676	8.81	-13.277
36	52344	8.91	-13.3115
36	53020	9.01	-13.346
36	53688	9.11	-13.3806
36	54356	9.21	-13.4151
36	55024	9.31	-13.4496
36	55692	9.41	-13.4842
36	56360	9.51	-22.4492
37	183	1.11	27.78
37	851	1.21	27.78
37	1519	1.31	27.7799
37	2187	1.41	27.7799
37	2855	1.51	27.7798
37	3523	1.61	27.7798
37	4191	1.71	27.7798
37	4859	1.81	27.7798
37	5527	1.91	27.7798
37	6203	2.01	27.7798
37	6871	2.11	27.7799
37	7539	2.21	27.7799
37	8207	2.31	27.7799
37	8875	2.41	27.7799
37	9543	2.51	27.7799
37	10211	2.61	27.7799
37	10879	2.71	27.7798
37	11547	2.81	27.7797
37	12215	2.91	27.7796
37	12891	3.01	27.7794
37	13559	3.11	27.7792
37	14227	3.21	27.779
37	14895	3.31	27.7787
37	15563	3.41	27.7785
37	16231	3.51	27.7782
37	16899	3.61	27.778
37	17567	3.71	27.7777
37	18235	3.81	27.7774
37	18903	3.91	27.7772
37	19579	4.01	27.777
37	20247	4.11	27.7768
37	20915	4.21	27.7767
37	21583	4.31	27.7766
37	22251	4.41	27.7765
37	22919	4.51	27.7764
37	23587	4.61	27.7764
37	24255	4.71	27.7764
37	24923	4.81	27.7764
37	25591	4.91	27.7765
37	26268	5.01	27.7766
37	26936	5.11	27.7767
37	27604	5.21	27.7768
37	28272	5.31	27.7769
37	28940	5.41	27.777
37	29608	5.51	27.7771
37	30276	5.61	27.7772
37	30944	5.71	27.7772
37	31612	5.81	27.777
37	32280	5.91	27.7762
37	32956	6.01	27.7742
37	33624	6.11	27.77
37	34292	6.21	27.7617
37	34960	6.31	27.7467
37	35628	6.41	27.721
37	36296	6.51	27.6794
37	36964	6.61	27.6153
37	37632	6.71	27.5202
37	38300	6.81	27.3846
37	38968	6.91	27.1974
37	39644	7.01	26.9469
37	40312	7.11	26.6213
37	40980	7.21	26.209
37	41648	7.31	25.7006
37	42316	7.41	25.0898
37	42984	7.51	24.377
37	43652	7.61	23.5685
37	44320	7.71	22.6819
37	44988	7.81	21.7819
37	45656	7.91	20.8819
37	46332	8.01	19.9819
37	47000	8.11	19.0819
37	47668	8.21	18.1819
37	48336	8.31	17.2819
37	49004	8.41	16.3819
37	49672	8.51	15.4819
37	50340	8.61	14.5819
37	51008	8.71	13.6819
37	51676	8.81	12.7819
37	52344	8.91	11.8819
37	53020	9.01	10.9819
37	53688	9.11	10.0819
37	54356	9.21	9.1819
37	55024	9.31	8.2819
37	55692	9.41	7.3819
37	56360	9.51	6.4819
38	183	1.11	53.9402
38	851	1.21	56.7182
38	1519	1.31	59.4962
38	2187	1.41	62.2742
38	2855	1.51	65.0522
38	3523	1.61	67.8301
38	4191	1.71	70.6081
38	4859	1.81	73.3861
38	5527	1.91	76.1641
38	6203	2.01	78.9421
38	6871	2.11	81.7201
38	7539	2.21	84.498
38	8207	2.31	87.276
38	8875	2.41	90.054
38	9543	2.51	92.832
38	10211	2.61	95.61
38	10879	2.71	98.388
38	11547	2.81	101.166
38	12215	2.91	103.944
38	12891	3.01	106.722
38	13559	3.11	109.5
38	14227	3.21	112.278
38	14895	3.31	115.056
38	15563	3.41	117.833
38	16231	3.51	120.611
38	16899	3.61	123.389
38	17567	3.71	126.167
38	18235	3.81	128.945
38	18903	3.91	131.722
38	19579	4.01	134.5
38	20247	4.11	137.278
38	20915	4.21	140.055
38	21583	4.31	142.833
38	22251	4.41	145.611
38	22919	4.51	148.388
38	23587	4.61	151.166
38	24255	4.71	153.944
38	24923	4.81	156.721
38	25591	4.91	159.499
38	26268	5.01	162.277
38	26936	5.11	165.054
38	27604	5.21	167.832
38	28272	5.31	170.61
38	28940	5.41	173.387
[...]
85	31977	5.854893932204	7
85	32645	5.954849259355	7
85	33321	6.054856582307	7
85	33989	6.154824900207	7
85	34657	6.254832212126	7
85	35325	6.354813517068	7
85	35993	6.45479481396	7
85	36661	6.554854101665	7
85	37329	6.654835378974	7
85	37997	6.754894644619	7
85	38665	6.854823897268	7
85	39333	6.954844135535	7
85	40009	7.054799357978	7
85	40677	7.154858563117	7
85	41345	7.25485274944	7
85	42013	7.354885915428	7
85	42681	7.454880059593	7
85	43349	7.554874180519	7
85	44017	7.654803276881	7
85	44685	7.754849347466	7
85	45353	7.854817391178	7
85	46021	7.95488940706	7
85	46697	8.054896394298	7
85	47365	8.154851352234	7
85	48033	8.254897280361	7
85	48701	8.354813178293	7
85	49369	8.454820045782	7
85	50037	8.554878882737	7
85	50705	8.654859689256	7
85	51373	8.754840465771	7
85	52041	8.85487321359	7
85	52709	8.954814936498	7
85	53385	9.054808640686	7
85	54053	9.154841330401	7
85	54721	9.25484800791	7
85	55389	9.354867674813	7
85	56057	9.454822332492	7
86	1333	1.265737524479	0.100007339681
86	2001	1.365731864161	0.099994339682
86	2669	1.465739203843	0.100007339682
86	3337	1.565733543525	0.099994339682
86	4005	1.665740883205	0.10000733968
86	4667	1.765735222884	0.099994339679
86	5335	1.865742562565	0.100007339681
86	6003	1.965736902245	0.09999433968
86	6679	2.065731241923	0.099994339678
86	7347	2.165738581598	0.100007339675
86	8021	2.265732921275	0.099994339677
86	8689	2.365740260948	0.100007339673
86	9357	2.465734600619	0.099994339671
86	10025	2.565741940289	0.10000733967
86	10693	2.665736279956	0.099994339667
86	11361	2.765730619623	0.099994339667
86	12029	2.865737959287	0.100007339664
86	12697	2.965732298947	0.09999433966
86	13373	3.065739638603	0.100007339656
86	14041	3.165733978258	0.099994339655
86	14709	3.265741317908	0.10000733965
86	15377	3.365735657556	0.099994339648
86	16045	3.465729997199	0.099994339643
86	16713	3.565737336839	0.10000733964
86	17381	3.665731676476	0.099994339637
86	18049	3.765739016111	0.100007339635
86	18717	3.865733355741	0.09999433963
86	19385	3.965740695369	0.100007339628
86	20061	4.065735034993	0.099994339624
86	20729	4.165742374614	0.100007339621
86	21391	4.265736714233	0.099994339619
86	22059	4.365731053851	0.099994339618
86	22727	4.465738393466	0.100007339615
86	23395	4.565732733083	0.099994339617
86	24063	4.665740072698	0.100007339615
86	24731	4.765734412313	0.099994339615
86	25399	4.865741751932	0.100007339619
86	26067	4.965736091551	0.099994339619
86	26744	5.065730431168	0.099994339617
86	27412	5.165737770719	0.100007339551
86	28080	5.265732110054	0.099994339335
86	28748	5.365739448945	0.100007338891
86	29422	5.465733787089	0.099994338144
86	30090	5.565741124104	0.100007337015
86	30758	5.665735459536	0.099994335432
86	31426	5.76572979285	0.099994333314
86	32094	5.865737123431	0.100007330581
86	32762	5.965731450582	0.099994327151
86	33438	6.065738773533	0.100007322951
86	34106	6.165733091429	0.099994317896
86	34774	6.265740403338	0.100007311909
86	35442	6.36573470826	0.099994304922
86	36110	6.465742005116	0.100007296856
86	36778	6.565736292757	0.099994287641
86	37446	6.665730569963	0.099994277206
86	38114	6.765737835445	0.100007265482
86	38782	6.865732087849	0.099994252404
86	39450	6.965739325759	0.10000723791
86	40126	7.065733547698	0.099994221939
86	40794	7.165740752145	0.100007204447
86	41462	7.265734937545	0.0999941854
86	42130	7.365742102332	0.100007164787
86	42798	7.46573624497	0.099994142638
86	43466	7.565730364005	0.099994119035
86	44134	7.665737458079	0.100007094074
86	44802	7.765731525967	0.099994067888
86	45470	7.865738566603	0.100007040636
86	46138	7.965732579074	0.099994012471
86	46814	8.065739562609	0.100006983535
86	47482	8.165733516591	0.099993953982
86	48150	8.265740440539	0.100006923948
86	48813	8.365734334089	0.09999389355
86	49481	8.465741197019	0.10000686293
86	50149	8.565735029266	0.099993832247
86	50817	8.665741830964	0.100006801698
86	51485	8.765735602576	0.099993771612
86	52153	8.865742345443	0.100006742867
86	52821	8.96573606338	0.099993717937
86	53497	9.065729762596	0.099993699216
86	54165	9.165736447339	0.100006684743
86	54833	9.265730119875	0.099993672536
86	55501	9.365736781806	0.100006661931
86	56169	9.465730434513	0.099993652707
87	1333	1.265737524479	5
87	2001	1.365731864161	5
87	2669	1.465739203843	5
87	3337	1.565733543525	5
87	4005	1.665740883205	5
87	4667	1.765735222884	5
87	5335	1.865742562565	5
87	6003	1.965736902245	5
87	6679	2.065731241923	5
87	7347	2.165738581598	5
87	8021	2.265732921275	5
87	8689	2.365740260948	5
87	9357	2.465734600619	5
87	10025	2.565741940289	5
87	10693	2.665736279956	5
87	11361	2.765730619623	5
87	12029	2.865737959287	5
87	12697	2.965732298947	5
87	13373	3.065739638603	5
87	14041	3.165733978258	5
87	14709	3.265741317908	5
87	15377	3.365735657556	5
87	16045	3.465729997199	5
87	16713	3.565737336839	5
87	17381	3.665731676476	5
87	18049	3.765739016111	5
87	18717	3.865733355741	5
87	19385	3.965740695369	5
87	20061	4.065735034993	5
87	20729	4.165742374614	5
87	21391	4.265736714233	5
87	22059	4.365731053851	5
87	22727	4.465738393466	5
87	23395	4.565732733083	5
87	24063	4.665740072698	5
87	24731	4.765734412313	5
87	25399	4.865741751932	5
87	26067	4.965736091551	5
87	26744	5.065730431168	5
87	27412	5.165737770719	5
87	28080	5.265732110054	5
87	28748	5.365739448945	5
87	29422	5.465733787089	5
87	30090	5.565741124104	5
87	30758	5.665735459536	5
87	31426	5.76572979285	5
87	32094	5.865737123431	5
87	32762	5.965731450582	5
87	33438	6.065738773533	5
87	34106	6.165733091429	5
87	34774	6.265740403338	5
87	35442	6.36573470826	5
87	36110	6.465742005116	5
87	36778	6.565736292757	5
87	37446	6.665730569963	5
87	38114	6.765737835445	5
87	38782	6.865732087849	5
87	39450	6.965739325759	5
87	40126	7.065733547698	5
87	40794	7.165740752145	5
87	41462	7.265734937545	5
87	42130	7.365742102332	5
87	42798	7.46573624497	5
87	43466	7.565730364005	5
87	44134	7.665737458079	5
87	44802	7.765731525967	5
87	45470	7.865738566603	5
87	46138	7.965732579074	5
87	46814	8.065739562609	5
87	47482	8.165733516591	5
87	48150	8.265740440539	5
87	48813	8.365734334089	5
87	49481	8.465741197019	5
87	50149	8.565735029266	5
87	50817	8.665741830964	5
87	51485	8.765735602576	5
87	52153	8.865742345443	5
87	52821	8.96573606338	5
87	53497	9.065729762596	5
87	54165	9.165736447339	5
87	54833	9.265730119875	5
87	55501	9.365736781806	5
87	56169	9.465730434513	5
88	1404	1.303548572279	0.100007339681
88	2072	1.403542911961	0.099994339682
88	2740	1.503537251643	0.099994339682
88	3408	1.603544591325	0.100007339682
88	4076	1.703538931005	0.09999433968
88	4744	1.803546270686	0.100007339681
88	5412	1.903540610367	0.099994339681
88	6088	2.003547950047	0.10000733968
88	6756	2.103542289725	0.099994339678
88	7424	2.2035366294	0.099994339675
88	8092	2.303543969076	0.100007339676
88	8760	2.403538308749	0.099994339673
88	9428	2.50354564842	0.100007339671
88	10096	2.60353998809	0.09999433967
88	10764	2.703547327757	0.100007339667
88	11432	2.803541667423	0.099994339666
88	12100	2.903536007087	0.099994339664
88	12776	3.003543346747	0.10000733966
88	13444	3.103537686402	0.099994339655
88	14112	3.203545026056	0.100007339654
88	14780	3.303539365707	0.099994339651
88	15448	3.403546705355	0.100007339648
88	16116	3.503541044998	0.099994339643
88	16784	3.603548384638	0.10000733964
88	17452	3.703542724274	0.099994339636
88	18120	3.803537063909	0.099994339635
88	18788	3.903544403539	0.10000733963
88	19464	4.003538743167	0.099994339628
88	20132	4.103546082792	0.100007339625
88	20800	4.203540422414	0.099994339622
88	21468	4.303547762034	0.10000733962
88	22136	4.403542101652	0.099994339618
88	22804	4.503536441267	0.099994339615
88	23472	4.603543780884	0.100007339617
88	24140	4.7035381205	0.099994339616
88	24808	4.803545460116	0.100007339616
88	25476	4.903539799734	0.099994339618
88	26153	5.003547139353	0.100007339619
88	26821	5.103541478971	0.099994339618
88	27489	5.203535818523	0.099994339552
88	28157	5.303543157857	0.100007339334
88	28825	5.403537496748	0.099994338891
88	29493	5.503544834891	0.100007338143
88	30161	5.603539171906	0.099994337015
88	30835	5.703546507338	0.100007335432
88	31503	5.803540840649	0.099994333311
88	32171	5.90354817122	0.100007330571
88	32847	6.003542498355	0.099994327135
88	33515	6.103536821273	0.099994322918
88	34183	6.203544139108	0.100007317835
88	34851	6.30353845092	0.099994311812
88	35519	6.403545755686	0.100007304766
88	36187	6.503540052309	0.099994296623
88	36855	6.603547339617	0.100007287308
88	37523	6.703541616364	0.099994276747
88	38191	6.803535881239	0.099994264875
88	38859	6.903543132866	0.100007251627
88	39535	7.003537369813	0.099994236947
88	40203	7.103544590594	0.100007220781
88	40871	7.20353879369	0.099994203096
88	41539	7.303545977564	0.100007183874
88	42207	7.403540140698	0.099994163134
88	42875	7.503547281636	0.100007140938
88	43543	7.603541398999	0.099994117363
88	44211	7.703548491495	0.100007092496
88	44879	7.80354255793	0.099994066435
88	45547	7.903536597211	0.099994039281
88	46223	8.003543608394	0.100007011183
88	46891	8.103537590674	0.09999398228
88	47559	8.203544543409	0.100006952735
88	48227	8.303538466111	0.099993922702
88	48895	8.403545358413	0.100006892302
88	49563	8.503539220096	0.099993861683
88	50231	8.603546051096	0.100006831
88	50894	8.703539851547	0.099993800451
88	51562	8.803546621911	0.100006770364
88	52230	8.903540363531	0.09999374162
88	52906	9.003547080221	0.10000671669
88	53574	9.10354077819	0.099993697969
88	54242	9.203547461685	0.100006683495
88	54910	9.303541132975	0.09999367129
88	55578	9.403547793658	0.100006660683
88	56246	9.503541444406	0.099993650748
89	1404	1.303548572279	4
89	2072	1.403542911961	4
89	2740	1.503537251643	4
89	3408	1.603544591325	4
89	4076	1.703538931005	4
89	4744	1.803546270686	4
89	5412	1.903540610367	4
89	6088	2.003547950047	4
89	6756	2.103542289725	4
89	7424	2.2035366294	4
89	8092	2.303543969076	4
89	8760	2.403538308749	4
89	9428	2.50354564842	4
89	10096	2.60353998809	4
89	10764	2.703547327757	4
89	11432	2.803541667423	4
89	12100	2.903536007087	4
89	12776	3.003543346747	4
89	13444	3.103537686402	4
89	14112	3.203545026056	4
89	14780	3.303539365707	4
89	15448	3.403546705355	4
89	16116	3.503541044998	4
89	16784	3.603548384638	4
89	17452	3.703542724274	4
89	18120	3.803537063909	4
89	18788	3.903544403539	4
89	19464	4.003538743167	4
89	20132	4.103546082792	4
89	20800	4.203540422414	4
89	21468	4.303547762034	4
89	22136	4.403542101652	4
89	22804	4.503536441267	4
89	23472	4.603543780884	4
89	24140	4.7035381205	4
89	24808	4.803545460116	4
89	25476	4.903539799734	4
89	26153	5.003547139353	4
89	26821	5.103541478971	4
89	27489	5.203535818523	4
89	28157	5.303543157857	4
89	28825	5.403537496748	4
89	29493	5.503544834891	4
89	30161	5.603539171906	4
89	30835	5.703546507338	4
89	31503	5.803540840649	4
89	32171	5.90354817122	4
89	32847	6.003542498355	4
89	33515	6.103536821273	4
89	34183	6.203544139108	4
89	34851	6.30353845092	4
89	35519	6.403545755686	4
89	36187	6.503540052309	4
89	36855	6.603547339617	4
89	37523	6.703541616364	4
89	38191	6.803535881239	4
89	38859	6.903543132866	4
89	39535	7.003537369813	4
89	40203	7.103544590594	4
89	40871	7.20353879369	4
89	41539	7.303545977564	4
89	42207	7.403540140698	4
89	42875	7.503547281636	4
89	43543	7.603541398999	4
89	44211	7.703548491495	4
89	44879	7.80354255793	4
89	45547	7.903536597211	4
89	46223	8.003543608394	4
89	46891	8.103537590674	4
89	47559	8.203544543409	4
89	48227	8.303538466111	4
89	48895	8.403545358413	4
89	49563	8.503539220096	4
89	50231	8.603546051096	4
89	50894	8.703539851547	4
89	51562	8.803546621911	4
89	52230	8.903540363531	4
89	52906	9.003547080221	4
89	53574	9.10354077819	4
89	54242	9.203547461685	4
89	54910	9.303541132975	4
89	55578	9.403547793658	4
89	56246	9.503541444406	4
90	1478	1.305141667912	0.099994339682
90	2146	1.405149007594	0.100007339682
90	2814	1.505143347276	0.099994339682
90	3482	1.605150686958	0.100007339682
90	4150	1.705145026637	0.099994339679
90	4818	1.805139366318	0.099994339681
90	5486	1.905146705999	0.100007339681
90	6162	2.005141045678	0.099994339679
90	6830	2.105148385356	0.100007339678
90	7498	2.205142725032	0.099994339676
90	8166	2.305150064707	0.100007339675
90	8834	2.40514440438	0.099994339673
90	9502	2.505138744052	0.099994339672
90	10170	2.605146083722	0.10000733967
90	10838	2.705140423389	0.099994339667
90	11506	2.805147763054	0.100007339665
90	12174	2.905142102717	0.099994339663
90	12850	3.005149442377	0.10000733966
90	13518	3.105143782033	0.099994339656
90	14186	3.205151121687	0.100007339654
90	14854	3.305145461337	0.09999433965
90	15522	3.405139800985	0.099994339648
90	16190	3.505147140626	0.100007339641
90	16858	3.605141480266	0.09999433964
90	17526	3.705148819903	0.100007339637
90	18194	3.805143159536	0.099994339633
90	18862	3.905150499166	0.10000733963
90	19538	4.005144838793	0.099994339627
90	20206	4.105139178418	0.099994339625
90	20874	4.205146518038	0.10000733962
90	21542	4.305140857658	0.09999433962
90	22210	4.405148197275	0.100007339617
90	22878	4.505142536889	0.099994339614
90	23546	4.605149876506	0.100007339617
90	24214	4.705144216121	0.099994339615
90	24882	4.805138555737	0.099994339616
90	25550	4.905145895356	0.100007339619
90	26227	5.005140234974	0.099994339618
90	26895	5.105147574592	0.100007339618
90	27563	5.205141914144	0.099994339552
90	28231	5.305149253479	0.100007339335
90	28899	5.405143592371	0.099994338892
90	29567	5.505150930515	0.100007338144
90	30235	5.60514526753	0.099994337015
90	30903	5.705139602962	0.099994335432
90	31571	5.805146936273	0.100007333311
90	32239	5.905141266845	0.099994330572
90	32915	6.00514859398	0.100007327135
90	33583	6.105142916896	0.099994322916
90	34251	6.205150234728	0.100007317832
90	34919	6.305144546533	0.099994311805
90	35587	6.405138851284	0.099994304751
90	36255	6.505146147883	0.100007296599
90	36923	6.605140435148	0.099994287265
90	37591	6.705147711827	0.100007276679
90	38259	6.805141976597	0.09999426477
90	38927	6.905149228067	0.10000725147
90	39603	7.005143464786	0.099994236719
90	40271	7.105150685249	0.100007220463
90	40939	7.205144887913	0.099994202664
90	41607	7.305139071212	0.099994183299
90	42275	7.405146233604	0.100007162392
90	42943	7.505140373603	0.099994139999
90	43611	7.60514748981	0.100007116207
90	44279	7.705141580917	0.099994091107
90	44947	7.805148645731	0.100007064814
90	45615	7.905142683179	0.099994037448
90	46291	8.005149692341	0.100007009162
90	46959	8.105143672443	0.099993980102
90	47627	8.205150622873	0.10000695043
90	48295	8.305144543178	0.099993920305
90	48963	8.405138433025	0.099993889847
90	49631	8.505145292224	0.100006859199
90	50299	8.605139120736	0.099993828512
90	50967	8.705145918699	0.100006797963
90	51635	8.805139686576	0.099993767877
90	52303	8.905146425708	0.100006739132
90	52979	9.00514013991	0.099993714202
90	53647	9.10514683539	0.10000669548
90	54315	9.205140516398	0.099993681008
90	54983	9.3051471852	0.100006668802
90	55651	9.405140843395	0.099993658195
90	56319	9.505147491656	0.100006648261
91	1478	1.305141667912	6
91	2146	1.405149007594	6
91	2814	1.505143347276	6
91	3482	1.605150686958	6
91	4150	1.705145026637	6
91	4818	1.805139366318	6
91	5486	1.905146705999	6
91	6162	2.005141045678	6
91	6830	2.105148385356	6
91	7498	2.205142725032	6
91	8166	2.305150064707	6
91	8834	2.40514440438	6
91	9502	2.505138744052	6
91	10170	2.605146083722	6
91	10838	2.705140423389	6
91	11506	2.805147763054	6
91	12174	2.905142102717	6
91	12850	3.005149442377	6
91	13518	3.105143782033	6
91	14186	3.205151121687	6
91	14854	3.305145461337	6
91	15522	3.405139800985	6
91	16190	3.505147140626	6
91	16858	3.605141480266	6
91	17526	3.705148819903	6
91	18194	3.805143159536	6
91	18862	3.905150499166	6
91	19538	4.005144838793	6
91	20206	4.105139178418	6
91	20874	4.205146518038	6
91	21542	4.305140857658	6
91	22210	4.405148197275	6
91	22878	4.505142536889	6
91	23546	4.605149876506	6
91	24214	4.705144216121	6
91	24882	4.805138555737	6
91	25550	4.905145895356	6
91	26227	5.005140234974	6
91	26895	5.105147574592	6
91	27563	5.205141914144	6
91	28231	5.305149253479	6
91	28899	5.405143592371	6
91	29567	5.505150930515	6
91	30235	5.60514526753	6
91	30903	5.705139602962	6
91	31571	5.805146936273	6
91	32239	5.905141266845	6
91	32915	6.00514859398	6
91	33583	6.105142916896	6
91	34251	6.205150234728	6
91	34919	6.305144546533	6
91	35587	6.405138851284	6
91	36255	6.505146147883	6
91	36923	6.605140435148	6
91	37591	6.705147711827	6
91	38259	6.805141976597	6
91	38927	6.905149228067	6
91	39603	7.005143464786	6
91	40271	7.105150685249	6
91	40939	7.205144887913	6
91	41607	7.305139071212	6
91	42275	7.405146233604	6
91	42943	7.505140373603	6
91	43611	7.60514748981	6
91	44279	7.705141580917	6
91	44947	7.805148645731	6
91	45615	7.905142683179	6
91	46291	8.005149692341	6
91	46959	8.105143672443	6
91	47627	8.205150622873	6
91	48295	8.305144543178	6
91	48963	8.405138433025	6
91	49631	8.505145292224	6
91	50299	8.605139120736	6
91	50967	8.705145918699	6
91	51635	8.805139686576	6
91	52303	8.905146425708	6
91	52979	9.00514013991	6
91	53647	9.10514683539	6
91	54315	9.205140516398	6
91	54983	9.3051471852	6
91	55651	9.405140843395	6
91	56319	9.505147491656	6
92	6044	2	0
92	12732	3	0
92	19420	4	0
92	26109	5	0
92	32797	6	0
92	39485	7	0
92	46173	8	0
92	52861	9	0
93	6044	2	0.027689
93	12732	3	0.03081
93	19420	4	0.03081
93	26109	5	0.03081
93	32797	6	0.03081
93	39485	7	0.03081
93	46173	8	0.03081
93	52861	9	0.03081
94	6044	2	0
94	12732	3	0
94	19420	4	0
94	26109	5	0
94	32797	6	0
94	39485	7	0
94	46173	8	0
94	52861	9	0
95	6045	2	1
95	12733	3	1
95	19421	4	1
95	26110	5	1
95	32798	6	1
95	39486	7	1
95	46174	8	1
95	52862	9	1
96	6045	2	0.027689
96	12733	3	0.03081
96	19421	4	0.03081
96	26110	5	0.03081
96	32798	6	0.03081
96	39486	7	0.03081
96	46174	8	0.03081
96	52862	9	0.03081
97	6045	2	0
97	12733	3	0
97	19421	4	0
97	26110	5	0
97	32798	6	0
97	39486	7	0
97	46174	8	0
97	52862	9	0
98	6046	2	2
98	12734	3	2
98	19422	4	2
98	26111	5	2
98	32799	6	2
98	39487	7	2
98	46175	8	2
98	52863	9	2
99	6046	2	0.027689
99	12734	3	0.03081
99	19422	4	0.03081
99	26111	5	0.03081
99	32799	6	0.03081
99	39487	7	0.03081
99	46175	8	0.03081
99	52863	9	0.03081
100	6046	2	0
100	12734	3	0
100	19422	4	0
100	26111	5	0
100	32799	6	0
100	39487	7	0
100	46175	8	0
100	52863	9	0
101	6047	2	3
101	12735	3	3
101	19423	4	3
101	26112	5	3
101	32800	6	3
101	39488	7	3
101	46176	8	3
101	52864	9	3
102	6047	2	0.027688
102	12735	3	0.03081
102	19423	4	0.03081
102	26112	5	0.03081
102	32800	6	0.03081
102	39488	7	0.03081
102	46176	8	0.03081
102	52864	9	0.03081
103	6047	2	0
103	12735	3	0
103	19423	4	0
103	26112	5	0
103	32800	6	0
103	39488	7	0
103	46176	8	0
103	52864	9	0
104	6048	2	4
104	12736	3	4
104	19424	4	4
104	26113	5	4
104	32801	6	4
104	39489	7	4
104	46177	8	4
104	52865	9	4
105	6048	2	0.027689
105	12736	3	0.03081
105	19424	4	0.03081
105	26113	5	0.03081
105	32801	6	0.03081
105	39489	7	0.03081
105	46177	8	0.03081
105	52865	9	0.03081
106	6048	2	0
106	12736	3	0
106	19424	4	0
106	26113	5	0
106	32801	6	0
106	39489	7	0
106	46177	8	0
106	52865	9	0
107	6049	2	5
107	12737	3	5
107	19425	4	5
107	26114	5	5
107	32802	6	5
107	39490	7	5
107	46178	8	5
107	52866	9	5
108	6049	2	0.027688
108	12737	3	0.03081
108	19425	4	0.03081
108	26114	5	0.03081
108	32802	6	0.03081
108	39490	7	0.03081
108	46178	8	0.03081
108	52866	9	0.03081
109	6049	2	0
109	12737	3	0
109	19425	4	0
109	26114	5	0
109	32802	6	0
109	39490	7	0
109	46178	8	0
109	52866	9	0
110	6050	2	6
110	12738	3	6
110	19426	4	6
110	26115	5	6
110	32803	6	6
110	39491	7	6
110	46179	8	6
110	52867	9	6
111	6050	2	0.027689
111	12738	3	0.03081
111	19426	4	0.03081
111	26115	5	0.03081
111	32803	6	0.03081
111	39491	7	0.03081
111	46179	8	0.03081
111	52867	9	0.03081
112	6050	2	0
112	12738	3	0
112	19426	4	0
112	26115	5	0
112	32803	6	0
112	39491	7	0
112	46179	8	0
112	52867	9	0
113	6051	2	7
113	12739	3	7
113	19427	4	7
113	26116	5	7
113	32804	6	7
113	39492	7	7
113	46180	8	7
113	52868	9	7
114	6051	2	0.027689
114	12739	3	0.03081
114	19427	4	0.03081
114	26116	5	0.03081
114	32804	6	0.03081
114	39492	7	0.03081
114	46180	8	0.03081
114	52868	9	0.03081
115	6051	2	0
115	12739	3	0
115	19427	4	0
115	26116	5	0
115	32804	6	0
115	39492	7	0
115	46180	8	0
115	52868	9	0

